data_image0
_chemical_formula_structural       In2Se3InSeInSe2In2Se3InSeInSe2In2Se3InSeInSe2In2Se3InSeInSe2In2Se3InSeInSe2In2Se3InSeInSe2In2Se3InSeInSe2In2Se3InSeInSe2In2Se3InSeInSe2In2Se3InSeInSe2In2Se3InSeInSe2In2Se3InSeInSe2In2Se3InSeInSe2In2Se3InSeInSe2In2Se3InSeInSe2In2Se3InSeInSe2In2Se3InSeInSe2In2Se3InSeInSe2In2Se3InSeInSe2In2Se3InSeInSe2In2Se3InSeInSe2In2Se3InSeInSe2In2Se3InSeInSe2In2Se3InSeInSe2In2Se3InSeInSe2In2Se3InSeInSe2In2Se3InSeInSe2In2Se3InSeInSe2In2Se3InSeInSe2In2Se3InSeInSe2In2Se3InSeInSe2In2Se3InSeInSe2In2Se3InSeInSe2In2Se3InSeInSe2In2Se3InSeInSe2In2Se3InSeInSe2In2Se3InSeInSe2In2Se3InSeInSe2In2Se3InSeInSe2In2Se3InSeInSe2In2Se3InSeInSe2In2Se3InSeInSe2In2Se3InSeInSe2In2Se3InSeInSe2In2Se3InSeInSe2In2Se3InSeInSe2In2Se3InSeInSe2In2Se3InSeInSe2In2Se3InSeInSe2In2Se3InSeInSe2In2Se3InSeInSe2In2Se3InSeInSe2In2Se3InSeInSe2In2Se3InSeInSe2In2Se3InSeInSe2In2Se3InSeInSe2In2Se3InSeInSe2In2Se3InSeInSe2In2Se3InSeInSe2In2Se3InSeInSe2In2Se3InSeInSe2In2Se3InSeInSe2In2Se3InSeInSe2In2Se3InSeInSe2In2Se3InSeInSe2In2Se3InSeInSe2In2Se3InSeInSe2In2Se3InSeInSe2In2Se3InSeInSe2In2Se3InSeInSe2In2Se3InSeInSe2In2Se3InSeInSe2In2Se3InSeInSe2In2Se3InSeInSe2In2Se3InSeInSe2In2Se3InSeInSe2In2Se3InSeInSe2In2Se3InSeInSe2In2Se3InSeInSe2In2Se3InSeInSe2In2Se3InSeInSe2In2Se3InSeInSe2In2Se3InSeInSe2In2Se3InSeInSe2In2Se3InSeInSe2In2Se3InSeInSe2In2Se3InSeInSe2In2Se3InSeInSe2In2Se3InSeInSe2In2Se3InSeInSe2In2Se3InSeInSe2In2Se3InSeInSe2In2Se3InSeInSe2In2Se3InSeInSe2In2Se3InSeInSe2In2Se3InSeInSe2In2Se3InSeInSe2In2Se3InSeInSe2In2Se3InSeInSe2In2Se3InSeInSe2In2Se3InSeInSe2In2Se3InSeInSe2In2Se3InSeInSe2In2Se3InSeInSe2In2Se3InSeInSe2In2Se3InSeInSe2In2Se3InSeInSe2In2Se3InSeInSe2In2Se3InSeInSe2In2Se3InSeInSe2In2Se3InSeInSe2In2Se3InSeInSe2In2Se3InSeInSe2In2Se3InSeInSe2In2Se3InSeInSe2In2Se3InSeInSe2In2Se3InSeInSe2In2Se3InSeInSe2In2Se3InSeInSe2In2Se3InSeInSe2In2Se3InSeInSe2In2Se3InSeInSe2In2Se3InSeInSe2In2Se3InSeInSe2In2Se3InSeInSe2In2Se3InSeInSe2In2Se3InSeInSe2In2Se3InSeInSe2In2Se3InSeInSe2In2Se3InSeInSe2In2Se3InSeInSe2In2Se3InSeInSe2In2Se3InSeInSe2In2Se3InSeInSe2In2Se3InSeInSe2In2Se3InSeInSe2In2Se3InSeInSe2In2Se3InSeInSe2In2Se3InSeInSe2In2Se3InSeInSe2In2Se3InSeInSe2In2Se3InSeInSe2In2Se3InSeInSe2In2Se3InSeInSe2In2Se3InSeInSe2In2Se3InSeInSe2In2Se3InSeInSe2In2Se3InSeInSe2In2Se3InSeInSe2In2Se3InSeInSe2In2Se3InSeInSe2In2Se3InSeInSe2In2Se3InSeInSe2In2Se3InSeInSe2In2Se3InSeInSe2In2Se3InSeInSe2In2Se3InSeInSe2In2Se3InSeInSe2In2Se3InSeInSe2In2Se3InSeInSe2In2Se3InSeInSe2In2Se3InSeInSe2In2Se3InSeInSe2In2Se3InSeInSe2In2Se3InSeInSe2In2Se3InSeInSe2In2Se3InSeInSe2In2Se3InSeInSe2In2Se3InSeInSe2In2Se3InSeInSe2In2Se3InSeInSe2In2Se3InSeInSe2In2Se3InSeInSe2In2Se3InSeInSe2In2Se3InSeInSe2In2Se3InSeInSe2In2Se3InSeInSe2In2Se3InSeInSe2In2Se3InSeInSe2In2Se3InSeInSe2In2Se3InSeInSe2In2Se3InSeInSe2In2Se3InSeInSe2In2Se3InSeInSe2In2Se3InSeInSe2In2Se3InSeInSe2In2Se3InSeInSe2In2Se3InSeInSe2In2Se3InSeInSe2In2Se3InSeInSe2In2Se3InSeInSe2In2Se3InSeInSe2In2Se3InSeInSe2In2Se3InSeInSe2In2Se3InSeInSe2In2Se3InSeInSe2In2Se3InSeInSe2In2Se3InSeInSe2In2Se3InSeInSe2In2Se3InSeInSe2In2Se3InSeInSe2In2Se3InSeInSe2In2Se3InSeInSe2In2Se3InSeInSe2In2Se3InSeInSe2In2Se3InSeInSe2In2Se3InSeInSe2In2Se3InSeInSe2In2Se3InSeInSe2In2Se3InSeInSe2In2Se3InSeInSe2In2Se3InSeInSe2In2Se3InSeInSe2In2Se3InSeInSe2In2Se3InSeInSe2In2Se3InSeInSe2In2Se3InSeInSe2In2Se3InSeInSe2In2Se3InSeInSe2In2Se3InSeInSe2In2Se3InSeInSe2In2Se3InSeInSe2In2Se3InSeInSe2In2Se3InSeInSe2In2Se3InSeInSe2In2Se3InSeInSe2In2Se3InSeInSe2In2Se3InSeInSe2In2Se3InSeInSe2In2Se3InSeInSe2In2Se3InSeInSe2In2Se3InSeInSe2In2Se3InSeInSe2In2Se3InSeInSe2In2Se3InSeInSe2In2Se3InSeInSe2In2Se3InSeInSe2In2Se3InSeInSe2In2Se3InSeInSe2In2Se3InSeInSe2In2Se3InSeInSe2In2Se3InSeInSe2In2Se3InSeInSe2In2Se3InSeInSe2In2Se3InSeInSe2In2Se3InSeInSe2In2Se3InSeInSe2In2Se3InSeInSe2In2Se3InSeInSe2In2Se3InSeInSe2In2Se3InSeInSe2In2Se3InSeInSe2In2Se3InSeInSe2In2Se3InSeInSe2In2Se3InSeInSe2In2Se3InSeInSe2In2Se3InSeInSe2In2Se3InSeInSe2In2Se3InSeInSe2In2Se3InSeInSe2In2Se3InSeInSe2In2Se3InSeInSe2In2Se3InSeInSe2In2Se3InSeInSe2In2Se3InSeInSe2In2Se3InSeInSe2In2Se3InSeInSe2In2Se3InSeInSe2In2Se3InSeInSe2In2Se3InSeInSe2In2Se3InSeInSe2In2Se3InSeInSe2In2Se3InSeInSe2In2Se3InSeInSe2In2Se3InSeInSe2In2Se3InSeInSe2In2Se3InSeInSe2In2Se3InSeInSe2In2Se3InSeInSe2In2Se3InSeInSe2In2Se3InSeInSe2In2Se3InSeInSe2In2Se3InSeInSe2In2Se3InSeInSe2In2Se3InSeInSe2In2Se3InSeInSe2In2Se3InSeInSe2In2Se3InSeInSe2In2Se3InSeInSe2In2Se3InSeInSe2In2Se3InSeInSe2In2Se3InSeInSe2In2Se3InSeInSe2In2Se3InSeInSe2In2Se3InSeInSe2In2Se3InSeInSe2In2Se3InSeInSe2In2Se3InSeInSe2In2Se3InSeInSe2In2Se3InSeInSe2In2Se3InSeInSe2In2Se3InSeInSe2In2Se3InSeInSe2In2Se3InSeInSe2In2Se3InSeInSe2In2Se3InSeInSe2In2Se3InSeInSe2In2Se3InSeInSe2In2Se3InSeInSe2In2Se3InSeInSe2In2Se3InSeInSe2In2Se3InSeInSe2In2Se3InSeInSe2In2Se3InSeInSe2In2Se3InSeInSe2In2Se3InSeInSe2In2Se3InSeInSe2In2Se3InSeInSe2In2Se3InSeInSe2In2Se3InSeInSe2In2Se3InSeInSe2In2Se3InSeInSe2In2Se3InSeInSe2In2Se3InSeInSe2In2Se3InSeInSe2In2Se3InSeInSe2In2Se3InSeInSe2In2Se3InSeInSe2In2Se3InSeInSe2In2Se3InSeInSe2In2Se3InSeInSe2In2Se3InSeInSe2In2Se3InSeInSe2In2Se3InSeInSe2In2Se3InSeInSe2In2Se3InSeInSe2In2Se3InSeInSe2In2Se3InSeInSe2In2Se3InSeInSe2In2Se3InSeInSe2In2Se3InSeInSe2In2Se3InSeInSe2In2Se3InSeInSe2In2Se3InSeInSe2In2Se3InSeInSe2In2Se3InSeInSe2In2Se3InSeInSe2In2Se3InSeInSe2In2Se3InSeInSe2In2Se3InSeInSe2In2Se3InSeInSe2In2Se3InSeInSe2In2Se3InSeInSe2In2Se3InSeInSe2In2Se3InSeInSe2In2Se3InSeInSe2In2Se3InSeInSe2In2Se3InSeInSe2In2Se3InSeInSe2In2Se3InSeInSe2In2Se3InSeInSe2In2Se3InSeInSe2In2Se3InSeInSe2In2Se3InSeInSe2In2Se3InSeInSe2In2Se3InSeInSe2In2Se3InSeInSe2In2Se3InSeInSe2In2Se3InSeInSe2In2Se3InSeInSe2In2Se3InSeInSe2In2Se3InSeInSe2In2Se3InSeInSe2In2Se3InSeInSe2In2Se3InSeInSe2In2Se3InSeInSe2In2Se3InSeInSe2In2Se3InSeInSe2In2Se3InSeInSe2In2Se3InSeInSe2In2Se3InSeInSe2In2Se3InSeInSe2In2Se3InSeInSe2In2Se3InSeInSe2In2Se3InSeInSe2In2Se3InSeInSe2In2Se3InSeInSe2In2Se3InSeInSe2In2Se3InSeInSe2In2Se3InSeInSe2In2Se3InSeInSe2In2Se3InSeInSe2In2Se3InSeInSe2In2Se3InSeInSe2In2Se3InSeInSe2In2Se3InSeInSe2In2Se3InSeInSe2In2Se3InSeInSe2In2Se3InSeInSe2In2Se3InSeInSe2In2Se3InSeInSe2In2Se3InSeInSe2In2Se3InSeInSe2In2Se3InSeInSe2In2Se3InSeInSe2In2Se3InSeInSe2In2Se3InSeInSe2In2Se3InSeInSe2In2Se3InSeInSe2In2Se3InSeInSe2In2Se3InSeInSe2In2Se3InSeInSe2In2Se3InSeInSe2In2Se3InSeInSe2In2Se3InSeInSe2In2Se3InSeInSe2In2Se3InSeInSe2In2Se3InSeInSe2In2Se3InSeInSe2In2Se3InSeInSe2In2Se3InSeInSe2In2Se3InSeInSe2In2Se3InSeInSe2In2Se3InSeInSe2In2Se3InSeInSe2In2Se3InSeInSe2In2Se3InSeInSe2In2Se3InSeInSe2In2Se3InSeInSe2In2Se3InSeInSe2In2Se3InSeInSe2In2Se3InSeInSe2In2Se3InSeInSe2In2Se3InSeInSe2In2Se3InSeInSe2In2Se3InSeInSe2In2Se3InSeInSe2In2Se3InSeInSe2In2Se3InSeInSe2In2Se3InSeInSe2In2Se3InSeInSe2In2Se3InSeInSe2In2Se3InSeInSe2In2Se3InSeInSe2In2Se3InSeInSe2In2Se3InSeInSe2In2Se3InSeInSe2In2Se3InSeInSe2In2Se3InSeInSe2In2Se3InSeInSe2In2Se3InSeInSe2In2Se3InSeInSe2In2Se3InSeInSe2In2Se3InSeInSe2In2Se3InSeInSe2In2Se3InSeInSe2In2Se3InSeInSe2In2Se3InSeInSe2In2Se3InSeInSe2In2Se3InSeInSe2In2Se3InSeInSe2In2Se3InSeInSe2In2Se3InSeInSe2In2Se3InSeInSe2In2Se3InSeInSe2In2Se3InSeInSe2In2Se3InSeInSe2In2Se3InSeInSe2In2Se3InSeInSe2In2Se3InSeInSe2In2Se3InSeInSe2In2Se3InSeInSe2In2Se3InSeInSe2In2Se3InSeInSe2In2Se3InSeInSe2In2Se3InSeInSe2In2Se3InSeInSe2In2Se3InSeInSe2In2Se3InSeInSe2In2Se3InSeInSe2In2Se3InSeInSe2In2Se3InSeInSe2In2Se3InSeInSe2In2Se3InSeInSe2In2Se3InSeInSe2In2Se3InSeInSe2In2Se3InSeInSe2In2Se3InSeInSe2In2Se3InSeInSe2In2Se3InSeInSe2In2Se3InSeInSe2In2Se3InSeInSe2In2Se3InSeInSe2In2Se3InSeInSe2In2Se3InSeInSe2In2Se3InSeInSe2In2Se3InSeInSe2In2Se3InSeInSe2In2Se3InSeInSe2In2Se3InSeInSe2In2Se3InSeInSe2In2Se3InSeInSe2In2Se3InSeInSe2In2Se3InSeInSe2In2Se3InSeInSe2In2Se3InSeInSe2In2Se3InSeInSe2In2Se3InSeInSe2In2Se3InSeInSe2In2Se3InSeInSe2In2Se3InSeInSe2In2Se3InSeInSe2In2Se3InSeInSe2In2Se3InSeInSe2In2Se3InSeInSe2In2Se3InSeInSe2In2Se3InSeInSe2In2Se3InSeInSe2In2Se3InSeInSe2In2Se3InSeInSe2In2Se3InSeInSe2In2Se3InSeInSe2In2Se3InSeInSe2In2Se3InSeInSe2In2Se3InSeInSe2In2Se3InSeInSe2In2Se3InSeInSe2In2Se3InSeInSe2In2Se3InSeInSe2In2Se3InSeInSe2In2Se3InSeInSe2In2Se3InSeInSe2In2Se3InSeInSe2In2Se3InSeInSe2In2Se3InSeInSe2In2Se3InSeInSe2In2Se3InSeInSe2In2Se3InSeInSe2In2Se3InSeInSe2In2Se3InSeInSe2In2Se3InSeInSe2In2Se3InSeInSe2In2Se3InSeInSe2In2Se3InSeInSe2In2Se3InSeInSe2In2Se3InSeInSe2In2Se3InSeInSe2In2Se3InSeInSe2In2Se3InSeInSe2In2Se3InSeInSe2In2Se3InSeInSe2In2Se3InSeInSe2In2Se3InSeInSe2In2Se3InSeInSe2In2Se3InSeInSe2In2Se3InSeInSe2In2Se3InSeInSe2In2Se3InSeInSe2In2Se3InSeInSe2In2Se3InSeInSe2In2Se3InSeInSe2In2Se3InSeInSe2In2Se3InSeInSe2In2Se3InSeInSe2In2Se3InSeInSe2In2Se3InSeInSe2In2Se3InSeInSe2In2Se3InSeInSe2In2Se3InSeInSe2In2Se3InSeInSe2In2Se3InSeInSe2In2Se3InSeInSe2In2Se3InSeInSe2In2Se3InSeInSe2In2Se3InSeInSe2In2Se3InSeInSe2In2Se3InSeInSe2In2Se3InSeInSe2In2Se3InSeInSe2In2Se3InSeInSe2In2Se3InSeInSe2In2Se3InSeInSe2In2Se3InSeInSe2In2Se3InSeInSe2In2Se3InSeInSe2In2Se3InSeInSe2In2Se3InSeInSe2In2Se3InSeInSe2In2Se3InSeInSe2In2Se3InSeInSe2In2Se3InSeInSe2In2Se3InSeInSe2In2Se3InSeInSe2In2Se3InSeInSe2In2Se3InSeInSe2In2Se3InSeInSe2In2Se3InSeInSe2In2Se3InSeInSe2In2Se3InSeInSe2In2Se3InSeInSe2In2Se3InSeInSe2In2Se3InSeInSe2In2Se3InSeInSe2In2Se3InSeInSe2In2Se3InSeInSe2In2Se3InSeInSe2In2Se3InSeInSe2In2Se3InSeInSe2In2Se3InSeInSe2In2Se3InSeInSe2In2Se3InSeInSe2In2Se3InSeInSe2In2Se3InSeInSe2In2Se3InSeInSe2In2Se3InSeInSe2In2Se3InSeInSe2In2Se3InSeInSe2In2Se3InSeInSe2In2Se3InSeInSe2In2Se3InSeInSe2In2Se3InSeInSe2In2Se3InSeInSe2In2Se3InSeInSe2In2Se3InSeInSe2In2Se3InSeInSe2In2Se3InSeInSe2In2Se3InSeInSe2In2Se3InSeInSe2In2Se3InSeInSe2In2Se3InSeInSe2In2Se3InSeInSe2In2Se3InSeInSe2In2Se3InSeInSe2In2Se3InSeInSe2In2Se3InSeInSe2In2Se3InSeInSe2In2Se3InSeInSe2In2Se3InSeInSe2In2Se3InSeInSe2In2Se3InSeInSe2In2Se3InSeInSe2In2Se3InSeInSe2In2Se3InSeInSe2In2Se3InSeInSe2In2Se3InSeInSe2In2Se3InSeInSe2In2Se3InSeInSe2In2Se3InSeInSe2In2Se3InSeInSe2In2Se3InSeInSe2In2Se3InSeInSe2In2Se3InSeInSe2In2Se3InSeInSe2In2Se3InSeInSe2In2Se3InSeInSe2In2Se3InSeInSe2In2Se3InSeInSe2In2Se3InSeInSe2In2Se3InSeInSe2In2Se3InSeInSe2In2Se3InSeInSe2In2Se3InSeInSe2In2Se3InSeInSe2In2Se3InSeInSe2In2Se3InSeInSe2In2Se3InSeInSe2In2Se3InSeInSe2In2Se3InSeInSe2In2Se3InSeInSe2In2Se3InSeInSe2In2Se3InSeInSe2In2Se3InSeInSe2In2Se3InSeInSe2In2Se3InSeInSe2In2Se3InSeInSe2In2Se3InSeInSe2In2Se3InSeInSe2In2Se3InSeInSe2In2Se3InSeInSe2In2Se3InSeInSe2In2Se3InSeInSe2In2Se3InSeInSe2In2Se3InSeInSe2In2Se3InSeInSe2In2Se3InSeInSe2In2Se3InSeInSe2In2Se3InSeInSe2In2Se3InSeInSe2In2Se3InSeInSe2In2Se3InSeInSe2In2Se3InSeInSe2In2Se3InSeInSe2In2Se3InSeInSe2In2Se3InSeInSe2In2Se3InSeInSe2In2Se3InSeInSe2In2Se3InSeInSe2In2Se3InSeInSe2In2Se3InSeInSe2In2Se3InSeInSe2In2Se3InSeInSe2In2Se3InSeInSe2In2Se3InSeInSe2In2Se3InSeInSe2In2Se3InSeInSe2In2Se3InSeInSe2In2Se3InSeInSe2In2Se3InSeInSe2In2Se3InSeInSe2In2Se3InSeInSe2In2Se3InSeInSe2In2Se3InSeInSe2In2Se3InSeInSe2In2Se3InSeInSe2In2Se3InSeInSe2In2Se3InSeInSe2In2Se3InSeInSe2In2Se3InSeInSe2In2Se3InSeInSe2In2Se3InSeInSe2In2Se3InSeInSe2In2Se3InSeInSe2In2Se3InSeInSe2In2Se3InSeInSe2In2Se3InSeInSe2In2Se3InSeInSe2In2Se3InSeInSe2In2Se3InSeInSe2In2Se3InSeInSe2In2Se3InSeInSe2In2Se3InSeInSe2In2Se3InSeInSe2In2Se3InSeInSe2In2Se3InSeInSe2In2Se3InSeInSe2In2Se3InSeInSe2In2Se3InSeInSe2In2Se3InSeInSe2In2Se3InSeInSe2In2Se3InSeInSe2In2Se3InSeInSe2In2Se3InSeInSe2In2Se3InSeInSe2In2Se3InSeInSe2In2Se3InSeInSe2In2Se3InSeInSe2In2Se3InSeInSe2In2Se3InSeInSe2In2Se3InSeInSe2In2Se3InSeInSe2In2Se3InSeInSe2In2Se3InSeInSe2In2Se3InSeInSe2In2Se3InSeInSe2In2Se3InSeInSe2In2Se3InSeInSe2In2Se3InSeInSe2In2Se3InSeInSe2In2Se3InSeInSe2In2Se3InSeInSe2In2Se3InSeInSe2In2Se3InSeInSe2In2Se3InSeInSe2In2Se3InSeInSe2In2Se3InSeInSe2In2Se3InSeInSe2In2Se3InSeInSe2In2Se3InSeInSe2In2Se3InSeInSe2In2Se3InSeInSe2In2Se3InSeInSe2In2Se3InSeInSe2In2Se3InSeInSe2In2Se3InSeInSe2In2Se3InSeInSe2In2Se3InSeInSe2In2Se3InSeInSe2In2Se3InSeInSe2In2Se3InSeInSe2In2Se3InSeInSe2In2Se3InSeInSe2In2Se3InSeInSe2In2Se3InSeInSe2In2Se3InSeInSe2In2Se3InSeInSe2In2Se3InSeInSe2In2Se3InSeInSe2In2Se3InSeInSe2In2Se3InSeInSe2In2Se3InSeInSe2In2Se3InSeInSe2In2Se3InSeInSe2In2Se3InSeInSe2In2Se3InSeInSe2In2Se3InSeInSe2In2Se3InSeInSe2In2Se3InSeInSe2In2Se3InSeInSe2In2Se3InSeInSe2In2Se3InSeInSe2In2Se3InSeInSe2In2Se3InSeInSe2In2Se3InSeInSe2In2Se3InSeInSe2In2Se3InSeInSe2In2Se3InSeInSe2In2Se3InSeInSe2In2Se3InSeInSe2In2Se3InSeInSe2In2Se3InSeInSe2In2Se3InSeInSe2In2Se3InSeInSe2In2Se3InSeInSe2In2Se3InSeInSe2In2Se3InSeInSe2In2Se3InSeInSe2In2Se3InSeInSe2In2Se3InSeInSe2In2Se3InSeInSe2In2Se3InSeInSe2In2Se3InSeInSe2In2Se3InSeInSe2In2Se3InSeInSe2In2Se3InSeInSe2In2Se3InSeInSe2In2Se3InSeInSe2In2Se3InSeInSe2In2Se3InSeInSe2In2Se3InSeInSe2In2Se3InSeInSe2In2Se3InSeInSe2In2Se3InSeInSe2In2Se3InSeInSe2In2Se3InSeInSe2In2Se3InSeInSe2In2Se3InSeInSe2
_chemical_formula_sum              "In3344 Se5016"
_cell_length_a       151.0857181
_cell_length_b       151.50366002734296
_cell_length_c       9.86413276
_cell_angle_alpha    90.0
_cell_angle_beta     90.0
_cell_angle_gamma    90.0

_space_group_name_H-M_alt    "P 1"
_space_group_IT_number       1

loop_
  _space_group_symop_operation_xyz
  'x, y, z'

loop_
  _atom_site_type_symbol
  _atom_site_label
  _atom_site_symmetry_multiplicity
  _atom_site_fract_x
  _atom_site_fract_y
  _atom_site_fract_z
  _atom_site_occupancy
  In  In1       1.0  0.999999999868421  0.01515151522727273  0.8103706999999999  1.0000
  In  In2       1.0  0.013157894868421052  0.0075757575  0.1896293  1.0000
  Se  Se1       1.0  0.999999999868421  0.01515151522727273  0.32365471999999995  1.0000
  Se  Se2       1.0  0.013157894868421052  0.0075757575  0.6763452799999999  1.0000
  Se  Se3       1.0  0.0  0.0  0.0  1.0000
  In  In3       1.0  1.3157894778040982e-10  0.030303030227272734  0.1896293  1.0000
  Se  Se4       1.0  1.3157894778040982e-10  0.030303030227272734  0.6763452799999999  1.0000
  In  In4       1.0  0.013157894605263155  0.03787878795454546  0.8103706999999999  1.0000
  Se  Se5       1.0  0.013157894605263155  0.03787878795454546  0.32365471999999995  1.0000
  Se  Se6       1.0  0.013157894736842105  0.022727272727272728  0.0  1.0000
  In  In5       1.0  0.999999999868421  0.06060606068181818  0.8103706999999999  1.0000
  In  In6       1.0  0.013157894868421052  0.05303030295454546  0.1896293  1.0000
  Se  Se7       1.0  0.999999999868421  0.06060606068181818  0.32365471999999995  1.0000
  Se  Se8       1.0  0.013157894868421052  0.05303030295454546  0.6763452799999999  1.0000
  Se  Se9       1.0  0.0  0.045454545454545456  0.0  1.0000
  In  In7       1.0  1.3157894778040982e-10  0.07575757568181819  0.1896293  1.0000
  Se  Se10      1.0  1.3157894778040982e-10  0.07575757568181819  0.6763452799999999  1.0000
  In  In8       1.0  0.013157894605263155  0.08333333340909092  0.8103706999999999  1.0000
  Se  Se11      1.0  0.013157894605263155  0.08333333340909092  0.32365471999999995  1.0000
  Se  Se12      1.0  0.013157894736842105  0.06818181818181819  0.0  1.0000
  In  In9       1.0  0.999999999868421  0.10606060613636366  0.8103706999999999  1.0000
  In  In10      1.0  0.013157894868421052  0.09848484840909091  0.1896293  1.0000
  Se  Se13      1.0  0.999999999868421  0.10606060613636366  0.32365471999999995  1.0000
  Se  Se14      1.0  0.013157894868421052  0.09848484840909091  0.6763452799999999  1.0000
  Se  Se15      1.0  0.0  0.09090909090909091  0.0  1.0000
  In  In11      1.0  1.3157894778040982e-10  0.12121212113636365  0.1896293  1.0000
  Se  Se16      1.0  1.3157894778040982e-10  0.12121212113636365  0.6763452799999999  1.0000
  In  In12      1.0  0.013157894605263155  0.12878787886363638  0.8103706999999999  1.0000
  Se  Se17      1.0  0.013157894605263155  0.12878787886363638  0.32365471999999995  1.0000
  Se  Se18      1.0  0.013157894736842105  0.11363636363636365  0.0  1.0000
  In  In13      1.0  0.999999999868421  0.15151515159090911  0.8103706999999999  1.0000
  In  In14      1.0  0.013157894868421052  0.1439393938636364  0.1896293  1.0000
  Se  Se19      1.0  0.999999999868421  0.15151515159090911  0.32365471999999995  1.0000
  Se  Se20      1.0  0.013157894868421052  0.1439393938636364  0.6763452799999999  1.0000
  Se  Se21      1.0  0.0  0.13636363636363638  0.0  1.0000
  In  In15      1.0  1.3157894778040982e-10  0.16666666659090912  0.1896293  1.0000
  Se  Se22      1.0  1.3157894778040982e-10  0.16666666659090912  0.6763452799999999  1.0000
  In  In16      1.0  0.013157894605263155  0.17424242431818185  0.8103706999999999  1.0000
  Se  Se23      1.0  0.013157894605263155  0.17424242431818185  0.32365471999999995  1.0000
  Se  Se24      1.0  0.013157894736842105  0.15909090909090912  0.0  1.0000
  In  In17      1.0  0.999999999868421  0.19696969704545458  0.8103706999999999  1.0000
  In  In18      1.0  0.013157894868421052  0.18939393931818185  0.1896293  1.0000
  Se  Se25      1.0  0.999999999868421  0.19696969704545458  0.32365471999999995  1.0000
  Se  Se26      1.0  0.013157894868421052  0.18939393931818185  0.6763452799999999  1.0000
  Se  Se27      1.0  0.0  0.18181818181818182  0.0  1.0000
  In  In19      1.0  1.3157894778040982e-10  0.21212121204545456  0.1896293  1.0000
  Se  Se28      1.0  1.3157894778040982e-10  0.21212121204545456  0.6763452799999999  1.0000
  In  In20      1.0  0.013157894605263155  0.21969696977272726  0.8103706999999999  1.0000
  Se  Se29      1.0  0.013157894605263155  0.21969696977272726  0.32365471999999995  1.0000
  Se  Se30      1.0  0.013157894736842105  0.20454545454545456  0.0  1.0000
  In  In21      1.0  0.999999999868421  0.2424242425  0.8103706999999999  1.0000
  In  In22      1.0  0.013157894868421052  0.2348484847727273  0.1896293  1.0000
  Se  Se31      1.0  0.999999999868421  0.2424242425  0.32365471999999995  1.0000
  Se  Se32      1.0  0.013157894868421052  0.2348484847727273  0.6763452799999999  1.0000
  Se  Se33      1.0  0.0  0.2272727272727273  0.0  1.0000
  In  In23      1.0  1.3157894778040982e-10  0.2575757575  0.1896293  1.0000
  Se  Se34      1.0  1.3157894778040982e-10  0.2575757575  0.6763452799999999  1.0000
  In  In24      1.0  0.013157894605263155  0.2651515152272727  0.8103706999999999  1.0000
  Se  Se35      1.0  0.013157894605263155  0.2651515152272727  0.32365471999999995  1.0000
  Se  Se36      1.0  0.013157894736842105  0.25  0.0  1.0000
  In  In25      1.0  0.999999999868421  0.28787878795454547  0.8103706999999999  1.0000
  In  In26      1.0  0.013157894868421052  0.28030303022727276  0.1896293  1.0000
  Se  Se37      1.0  0.999999999868421  0.28787878795454547  0.32365471999999995  1.0000
  Se  Se38      1.0  0.013157894868421052  0.28030303022727276  0.6763452799999999  1.0000
  Se  Se39      1.0  0.0  0.27272727272727276  0.0  1.0000
  In  In27      1.0  1.3157894778040982e-10  0.3030303029545455  0.1896293  1.0000
  Se  Se40      1.0  1.3157894778040982e-10  0.3030303029545455  0.6763452799999999  1.0000
  In  In28      1.0  0.013157894605263155  0.3106060606818183  0.8103706999999999  1.0000
  Se  Se41      1.0  0.013157894605263155  0.3106060606818183  0.32365471999999995  1.0000
  Se  Se42      1.0  0.013157894736842105  0.2954545454545455  0.0  1.0000
  In  In29      1.0  0.999999999868421  0.33333333340909094  0.8103706999999999  1.0000
  In  In30      1.0  0.013157894868421052  0.32575757568181823  0.1896293  1.0000
  Se  Se43      1.0  0.999999999868421  0.33333333340909094  0.32365471999999995  1.0000
  Se  Se44      1.0  0.013157894868421052  0.32575757568181823  0.6763452799999999  1.0000
  Se  Se45      1.0  0.0  0.31818181818181823  0.0  1.0000
  In  In31      1.0  1.3157894778040982e-10  0.34848484840909094  0.1896293  1.0000
  Se  Se46      1.0  1.3157894778040982e-10  0.34848484840909094  0.6763452799999999  1.0000
  In  In32      1.0  0.013157894605263155  0.3560606061363637  0.8103706999999999  1.0000
  Se  Se47      1.0  0.013157894605263155  0.3560606061363637  0.32365471999999995  1.0000
  Se  Se48      1.0  0.013157894736842105  0.34090909090909094  0.0  1.0000
  In  In33      1.0  0.999999999868421  0.3787878788636364  0.8103706999999999  1.0000
  In  In34      1.0  0.013157894868421052  0.3712121211363637  0.1896293  1.0000
  Se  Se49      1.0  0.999999999868421  0.3787878788636364  0.32365471999999995  1.0000
  Se  Se50      1.0  0.013157894868421052  0.3712121211363637  0.6763452799999999  1.0000
  Se  Se51      1.0  0.0  0.36363636363636365  0.0  1.0000
  In  In35      1.0  1.3157894778040982e-10  0.3939393938636364  0.1896293  1.0000
  Se  Se52      1.0  1.3157894778040982e-10  0.3939393938636364  0.6763452799999999  1.0000
  In  In36      1.0  0.013157894605263155  0.40151515159090917  0.8103706999999999  1.0000
  Se  Se53      1.0  0.013157894605263155  0.40151515159090917  0.32365471999999995  1.0000
  Se  Se54      1.0  0.013157894736842105  0.3863636363636364  0.0  1.0000
  In  In37      1.0  0.999999999868421  0.4242424243181818  0.8103706999999999  1.0000
  In  In38      1.0  0.013157894868421052  0.4166666665909091  0.1896293  1.0000
  Se  Se55      1.0  0.999999999868421  0.4242424243181818  0.32365471999999995  1.0000
  Se  Se56      1.0  0.013157894868421052  0.4166666665909091  0.6763452799999999  1.0000
  Se  Se57      1.0  0.0  0.4090909090909091  0.0  1.0000
  In  In39      1.0  1.3157894778040982e-10  0.4393939393181818  0.1896293  1.0000
  Se  Se58      1.0  1.3157894778040982e-10  0.4393939393181818  0.6763452799999999  1.0000
  In  In40      1.0  0.013157894605263155  0.4469696970454546  0.8103706999999999  1.0000
  Se  Se59      1.0  0.013157894605263155  0.4469696970454546  0.32365471999999995  1.0000
  Se  Se60      1.0  0.013157894736842105  0.4318181818181819  0.0  1.0000
  In  In41      1.0  0.999999999868421  0.4696969697727273  0.8103706999999999  1.0000
  In  In42      1.0  0.013157894868421052  0.46212121204545453  0.1896293  1.0000
  Se  Se61      1.0  0.999999999868421  0.4696969697727273  0.32365471999999995  1.0000
  Se  Se62      1.0  0.013157894868421052  0.46212121204545453  0.6763452799999999  1.0000
  Se  Se63      1.0  0.0  0.4545454545454546  0.0  1.0000
  In  In43      1.0  1.3157894778040982e-10  0.4848484847727273  0.1896293  1.0000
  Se  Se64      1.0  1.3157894778040982e-10  0.4848484847727273  0.6763452799999999  1.0000
  In  In44      1.0  0.013157894605263155  0.49242424250000005  0.8103706999999999  1.0000
  Se  Se65      1.0  0.013157894605263155  0.49242424250000005  0.32365471999999995  1.0000
  Se  Se66      1.0  0.013157894736842105  0.47727272727272735  0.0  1.0000
  In  In45      1.0  0.999999999868421  0.5151515152272728  0.8103706999999999  1.0000
  In  In46      1.0  0.013157894868421052  0.5075757575  0.1896293  1.0000
  Se  Se67      1.0  0.999999999868421  0.5151515152272728  0.32365471999999995  1.0000
  Se  Se68      1.0  0.013157894868421052  0.5075757575  0.6763452799999999  1.0000
  Se  Se69      1.0  0.0  0.5  0.0  1.0000
  In  In47      1.0  1.3157894778040982e-10  0.5303030302272728  0.1896293  1.0000
  Se  Se70      1.0  1.3157894778040982e-10  0.5303030302272728  0.6763452799999999  1.0000
  In  In48      1.0  0.013157894605263155  0.5378787879545455  0.8103706999999999  1.0000
  Se  Se71      1.0  0.013157894605263155  0.5378787879545455  0.32365471999999995  1.0000
  Se  Se72      1.0  0.013157894736842105  0.5227272727272728  0.0  1.0000
  In  In49      1.0  0.999999999868421  0.5606060606818183  0.8103706999999999  1.0000
  In  In50      1.0  0.013157894868421052  0.5530303029545455  0.1896293  1.0000
  Se  Se73      1.0  0.999999999868421  0.5606060606818183  0.32365471999999995  1.0000
  Se  Se74      1.0  0.013157894868421052  0.5530303029545455  0.6763452799999999  1.0000
  Se  Se75      1.0  0.0  0.5454545454545455  0.0  1.0000
  In  In51      1.0  1.3157894778040982e-10  0.5757575756818183  0.1896293  1.0000
  Se  Se76      1.0  1.3157894778040982e-10  0.5757575756818183  0.6763452799999999  1.0000
  In  In52      1.0  0.013157894605263155  0.583333333409091  0.8103706999999999  1.0000
  Se  Se77      1.0  0.013157894605263155  0.583333333409091  0.32365471999999995  1.0000
  Se  Se78      1.0  0.013157894736842105  0.5681818181818183  0.0  1.0000
  In  In53      1.0  0.999999999868421  0.6060606061363637  0.8103706999999999  1.0000
  In  In54      1.0  0.013157894868421052  0.598484848409091  0.1896293  1.0000
  Se  Se79      1.0  0.999999999868421  0.6060606061363637  0.32365471999999995  1.0000
  Se  Se80      1.0  0.013157894868421052  0.598484848409091  0.6763452799999999  1.0000
  Se  Se81      1.0  0.0  0.590909090909091  0.0  1.0000
  In  In55      1.0  1.3157894778040982e-10  0.6212121211363637  0.1896293  1.0000
  Se  Se82      1.0  1.3157894778040982e-10  0.6212121211363637  0.6763452799999999  1.0000
  In  In56      1.0  0.013157894605263155  0.6287878788636365  0.8103706999999999  1.0000
  Se  Se83      1.0  0.013157894605263155  0.6287878788636365  0.32365471999999995  1.0000
  Se  Se84      1.0  0.013157894736842105  0.6136363636363638  0.0  1.0000
  In  In57      1.0  0.999999999868421  0.6515151515909091  0.8103706999999999  1.0000
  In  In58      1.0  0.013157894868421052  0.6439393938636364  0.1896293  1.0000
  Se  Se85      1.0  0.999999999868421  0.6515151515909091  0.32365471999999995  1.0000
  Se  Se86      1.0  0.013157894868421052  0.6439393938636364  0.6763452799999999  1.0000
  Se  Se87      1.0  0.0  0.6363636363636365  0.0  1.0000
  In  In59      1.0  1.3157894778040982e-10  0.6666666665909092  0.1896293  1.0000
  Se  Se88      1.0  1.3157894778040982e-10  0.6666666665909092  0.6763452799999999  1.0000
  In  In60      1.0  0.013157894605263155  0.6742424243181819  0.8103706999999999  1.0000
  Se  Se89      1.0  0.013157894605263155  0.6742424243181819  0.32365471999999995  1.0000
  Se  Se90      1.0  0.013157894736842105  0.6590909090909092  0.0  1.0000
  In  In61      1.0  0.999999999868421  0.6969696970454546  0.8103706999999999  1.0000
  In  In62      1.0  0.013157894868421052  0.6893939393181818  0.1896293  1.0000
  Se  Se91      1.0  0.999999999868421  0.6969696970454546  0.32365471999999995  1.0000
  Se  Se92      1.0  0.013157894868421052  0.6893939393181818  0.6763452799999999  1.0000
  Se  Se93      1.0  0.0  0.6818181818181819  0.0  1.0000
  In  In63      1.0  1.3157894778040982e-10  0.7121212120454546  0.1896293  1.0000
  Se  Se94      1.0  1.3157894778040982e-10  0.7121212120454546  0.6763452799999999  1.0000
  In  In64      1.0  0.013157894605263155  0.7196969697727273  0.8103706999999999  1.0000
  Se  Se95      1.0  0.013157894605263155  0.7196969697727273  0.32365471999999995  1.0000
  Se  Se96      1.0  0.013157894736842105  0.7045454545454547  0.0  1.0000
  In  In65      1.0  0.999999999868421  0.7424242425  0.8103706999999999  1.0000
  In  In66      1.0  0.013157894868421052  0.7348484847727274  0.1896293  1.0000
  Se  Se97      1.0  0.999999999868421  0.7424242425  0.32365471999999995  1.0000
  Se  Se98      1.0  0.013157894868421052  0.7348484847727274  0.6763452799999999  1.0000
  Se  Se99      1.0  0.0  0.7272727272727273  0.0  1.0000
  In  In67      1.0  1.3157894778040982e-10  0.7575757575000001  0.1896293  1.0000
  Se  Se100     1.0  1.3157894778040982e-10  0.7575757575000001  0.6763452799999999  1.0000
  In  In68      1.0  0.013157894605263155  0.7651515152272729  0.8103706999999999  1.0000
  Se  Se101     1.0  0.013157894605263155  0.7651515152272729  0.32365471999999995  1.0000
  Se  Se102     1.0  0.013157894736842105  0.7500000000000001  0.0  1.0000
  In  In69      1.0  0.999999999868421  0.7878787879545455  0.8103706999999999  1.0000
  In  In70      1.0  0.013157894868421052  0.7803030302272728  0.1896293  1.0000
  Se  Se103     1.0  0.999999999868421  0.7878787879545455  0.32365471999999995  1.0000
  Se  Se104     1.0  0.013157894868421052  0.7803030302272728  0.6763452799999999  1.0000
  Se  Se105     1.0  0.0  0.7727272727272728  0.0  1.0000
  In  In71      1.0  1.3157894778040982e-10  0.8030303029545455  0.1896293  1.0000
  Se  Se106     1.0  1.3157894778040982e-10  0.8030303029545455  0.6763452799999999  1.0000
  In  In72      1.0  0.013157894605263155  0.8106060606818183  0.8103706999999999  1.0000
  Se  Se107     1.0  0.013157894605263155  0.8106060606818183  0.32365471999999995  1.0000
  Se  Se108     1.0  0.013157894736842105  0.7954545454545455  0.0  1.0000
  In  In73      1.0  0.999999999868421  0.833333333409091  0.8103706999999999  1.0000
  In  In74      1.0  0.013157894868421052  0.8257575756818182  0.1896293  1.0000
  Se  Se109     1.0  0.999999999868421  0.833333333409091  0.32365471999999995  1.0000
  Se  Se110     1.0  0.013157894868421052  0.8257575756818182  0.6763452799999999  1.0000
  Se  Se111     1.0  0.0  0.8181818181818182  0.0  1.0000
  In  In75      1.0  1.3157894778040982e-10  0.848484848409091  0.1896293  1.0000
  Se  Se112     1.0  1.3157894778040982e-10  0.848484848409091  0.6763452799999999  1.0000
  In  In76      1.0  0.013157894605263155  0.8560606061363636  0.8103706999999999  1.0000
  Se  Se113     1.0  0.013157894605263155  0.8560606061363636  0.32365471999999995  1.0000
  Se  Se114     1.0  0.013157894736842105  0.840909090909091  0.0  1.0000
  In  In77      1.0  0.999999999868421  0.8787878788636366  0.8103706999999999  1.0000
  In  In78      1.0  0.013157894868421052  0.8712121211363637  0.1896293  1.0000
  Se  Se115     1.0  0.999999999868421  0.8787878788636366  0.32365471999999995  1.0000
  Se  Se116     1.0  0.013157894868421052  0.8712121211363637  0.6763452799999999  1.0000
  Se  Se117     1.0  0.0  0.8636363636363638  0.0  1.0000
  In  In79      1.0  1.3157894778040982e-10  0.8939393938636365  0.1896293  1.0000
  Se  Se118     1.0  1.3157894778040982e-10  0.8939393938636365  0.6763452799999999  1.0000
  In  In80      1.0  0.013157894605263155  0.9015151515909092  0.8103706999999999  1.0000
  Se  Se119     1.0  0.013157894605263155  0.9015151515909092  0.32365471999999995  1.0000
  Se  Se120     1.0  0.013157894736842105  0.8863636363636366  0.0  1.0000
  In  In81      1.0  0.999999999868421  0.9242424243181819  0.8103706999999999  1.0000
  In  In82      1.0  0.013157894868421052  0.9166666665909091  0.1896293  1.0000
  Se  Se121     1.0  0.999999999868421  0.9242424243181819  0.32365471999999995  1.0000
  Se  Se122     1.0  0.013157894868421052  0.9166666665909091  0.6763452799999999  1.0000
  Se  Se123     1.0  0.0  0.9090909090909092  0.0  1.0000
  In  In83      1.0  1.3157894778040982e-10  0.9393939393181818  0.1896293  1.0000
  Se  Se124     1.0  1.3157894778040982e-10  0.9393939393181818  0.6763452799999999  1.0000
  In  In84      1.0  0.013157894605263155  0.9469696970454545  0.8103706999999999  1.0000
  Se  Se125     1.0  0.013157894605263155  0.9469696970454545  0.32365471999999995  1.0000
  Se  Se126     1.0  0.013157894736842105  0.9318181818181819  0.0  1.0000
  In  In85      1.0  0.999999999868421  0.9696969697727275  0.8103706999999999  1.0000
  In  In86      1.0  0.013157894868421052  0.9621212120454546  0.1896293  1.0000
  Se  Se127     1.0  0.999999999868421  0.9696969697727275  0.32365471999999995  1.0000
  Se  Se128     1.0  0.013157894868421052  0.9621212120454546  0.6763452799999999  1.0000
  Se  Se129     1.0  0.0  0.9545454545454547  0.0  1.0000
  In  In87      1.0  1.3157894778040982e-10  0.9848484847727275  0.1896293  1.0000
  Se  Se130     1.0  1.3157894778040982e-10  0.9848484847727275  0.6763452799999999  1.0000
  In  In88      1.0  0.013157894605263155  0.9924242425  0.8103706999999999  1.0000
  Se  Se131     1.0  0.013157894605263155  0.9924242425  0.32365471999999995  1.0000
  Se  Se132     1.0  0.013157894736842105  0.9772727272727274  0.0  1.0000
  In  In89      1.0  0.02631578934210526  0.01515151522727273  0.8103706999999999  1.0000
  In  In90      1.0  0.03947368434210526  0.0075757575  0.1896293  1.0000
  Se  Se133     1.0  0.02631578934210526  0.01515151522727273  0.32365471999999995  1.0000
  Se  Se134     1.0  0.03947368434210526  0.0075757575  0.6763452799999999  1.0000
  Se  Se135     1.0  0.02631578947368421  0.0  0.0  1.0000
  In  In91      1.0  0.026315789605263155  0.030303030227272734  0.1896293  1.0000
  Se  Se136     1.0  0.026315789605263155  0.030303030227272734  0.6763452799999999  1.0000
  In  In92      1.0  0.039473684078947364  0.03787878795454546  0.8103706999999999  1.0000
  Se  Se137     1.0  0.039473684078947364  0.03787878795454546  0.32365471999999995  1.0000
  Se  Se138     1.0  0.03947368421052631  0.022727272727272728  0.0  1.0000
  In  In93      1.0  0.02631578934210526  0.06060606068181818  0.8103706999999999  1.0000
  In  In94      1.0  0.03947368434210526  0.05303030295454546  0.1896293  1.0000
  Se  Se139     1.0  0.02631578934210526  0.06060606068181818  0.32365471999999995  1.0000
  Se  Se140     1.0  0.03947368434210526  0.05303030295454546  0.6763452799999999  1.0000
  Se  Se141     1.0  0.02631578947368421  0.045454545454545456  0.0  1.0000
  In  In95      1.0  0.026315789605263155  0.07575757568181819  0.1896293  1.0000
  Se  Se142     1.0  0.026315789605263155  0.07575757568181819  0.6763452799999999  1.0000
  In  In96      1.0  0.039473684078947364  0.08333333340909092  0.8103706999999999  1.0000
  Se  Se143     1.0  0.039473684078947364  0.08333333340909092  0.32365471999999995  1.0000
  Se  Se144     1.0  0.03947368421052631  0.06818181818181819  0.0  1.0000
  In  In97      1.0  0.02631578934210526  0.10606060613636366  0.8103706999999999  1.0000
  In  In98      1.0  0.03947368434210526  0.09848484840909091  0.1896293  1.0000
  Se  Se145     1.0  0.02631578934210526  0.10606060613636366  0.32365471999999995  1.0000
  Se  Se146     1.0  0.03947368434210526  0.09848484840909091  0.6763452799999999  1.0000
  Se  Se147     1.0  0.02631578947368421  0.09090909090909091  0.0  1.0000
  In  In99      1.0  0.026315789605263155  0.12121212113636365  0.1896293  1.0000
  Se  Se148     1.0  0.026315789605263155  0.12121212113636365  0.6763452799999999  1.0000
  In  In100     1.0  0.039473684078947364  0.12878787886363638  0.8103706999999999  1.0000
  Se  Se149     1.0  0.039473684078947364  0.12878787886363638  0.32365471999999995  1.0000
  Se  Se150     1.0  0.03947368421052631  0.11363636363636365  0.0  1.0000
  In  In101     1.0  0.02631578934210526  0.15151515159090911  0.8103706999999999  1.0000
  In  In102     1.0  0.03947368434210526  0.1439393938636364  0.1896293  1.0000
  Se  Se151     1.0  0.02631578934210526  0.15151515159090911  0.32365471999999995  1.0000
  Se  Se152     1.0  0.03947368434210526  0.1439393938636364  0.6763452799999999  1.0000
  Se  Se153     1.0  0.02631578947368421  0.13636363636363638  0.0  1.0000
  In  In103     1.0  0.026315789605263155  0.16666666659090912  0.1896293  1.0000
  Se  Se154     1.0  0.026315789605263155  0.16666666659090912  0.6763452799999999  1.0000
  In  In104     1.0  0.039473684078947364  0.17424242431818185  0.8103706999999999  1.0000
  Se  Se155     1.0  0.039473684078947364  0.17424242431818185  0.32365471999999995  1.0000
  Se  Se156     1.0  0.03947368421052631  0.15909090909090912  0.0  1.0000
  In  In105     1.0  0.02631578934210526  0.19696969704545458  0.8103706999999999  1.0000
  In  In106     1.0  0.03947368434210526  0.18939393931818185  0.1896293  1.0000
  Se  Se157     1.0  0.02631578934210526  0.19696969704545458  0.32365471999999995  1.0000
  Se  Se158     1.0  0.03947368434210526  0.18939393931818185  0.6763452799999999  1.0000
  Se  Se159     1.0  0.02631578947368421  0.18181818181818182  0.0  1.0000
  In  In107     1.0  0.026315789605263155  0.21212121204545456  0.1896293  1.0000
  Se  Se160     1.0  0.026315789605263155  0.21212121204545456  0.6763452799999999  1.0000
  In  In108     1.0  0.039473684078947364  0.21969696977272726  0.8103706999999999  1.0000
  Se  Se161     1.0  0.039473684078947364  0.21969696977272726  0.32365471999999995  1.0000
  Se  Se162     1.0  0.03947368421052631  0.20454545454545456  0.0  1.0000
  In  In109     1.0  0.02631578934210526  0.2424242425  0.8103706999999999  1.0000
  In  In110     1.0  0.03947368434210526  0.2348484847727273  0.1896293  1.0000
  Se  Se163     1.0  0.02631578934210526  0.2424242425  0.32365471999999995  1.0000
  Se  Se164     1.0  0.03947368434210526  0.2348484847727273  0.6763452799999999  1.0000
  Se  Se165     1.0  0.02631578947368421  0.2272727272727273  0.0  1.0000
  In  In111     1.0  0.026315789605263155  0.2575757575  0.1896293  1.0000
  Se  Se166     1.0  0.026315789605263155  0.2575757575  0.6763452799999999  1.0000
  In  In112     1.0  0.039473684078947364  0.2651515152272727  0.8103706999999999  1.0000
  Se  Se167     1.0  0.039473684078947364  0.2651515152272727  0.32365471999999995  1.0000
  Se  Se168     1.0  0.03947368421052631  0.25  0.0  1.0000
  In  In113     1.0  0.02631578934210526  0.28787878795454547  0.8103706999999999  1.0000
  In  In114     1.0  0.03947368434210526  0.28030303022727276  0.1896293  1.0000
  Se  Se169     1.0  0.02631578934210526  0.28787878795454547  0.32365471999999995  1.0000
  Se  Se170     1.0  0.03947368434210526  0.28030303022727276  0.6763452799999999  1.0000
  Se  Se171     1.0  0.02631578947368421  0.27272727272727276  0.0  1.0000
  In  In115     1.0  0.026315789605263155  0.3030303029545455  0.1896293  1.0000
  Se  Se172     1.0  0.026315789605263155  0.3030303029545455  0.6763452799999999  1.0000
  In  In116     1.0  0.039473684078947364  0.3106060606818183  0.8103706999999999  1.0000
  Se  Se173     1.0  0.039473684078947364  0.3106060606818183  0.32365471999999995  1.0000
  Se  Se174     1.0  0.03947368421052631  0.2954545454545455  0.0  1.0000
  In  In117     1.0  0.02631578934210526  0.33333333340909094  0.8103706999999999  1.0000
  In  In118     1.0  0.03947368434210526  0.32575757568181823  0.1896293  1.0000
  Se  Se175     1.0  0.02631578934210526  0.33333333340909094  0.32365471999999995  1.0000
  Se  Se176     1.0  0.03947368434210526  0.32575757568181823  0.6763452799999999  1.0000
  Se  Se177     1.0  0.02631578947368421  0.31818181818181823  0.0  1.0000
  In  In119     1.0  0.026315789605263155  0.34848484840909094  0.1896293  1.0000
  Se  Se178     1.0  0.026315789605263155  0.34848484840909094  0.6763452799999999  1.0000
  In  In120     1.0  0.039473684078947364  0.3560606061363637  0.8103706999999999  1.0000
  Se  Se179     1.0  0.039473684078947364  0.3560606061363637  0.32365471999999995  1.0000
  Se  Se180     1.0  0.03947368421052631  0.34090909090909094  0.0  1.0000
  In  In121     1.0  0.02631578934210526  0.3787878788636364  0.8103706999999999  1.0000
  In  In122     1.0  0.03947368434210526  0.3712121211363637  0.1896293  1.0000
  Se  Se181     1.0  0.02631578934210526  0.3787878788636364  0.32365471999999995  1.0000
  Se  Se182     1.0  0.03947368434210526  0.3712121211363637  0.6763452799999999  1.0000
  Se  Se183     1.0  0.02631578947368421  0.36363636363636365  0.0  1.0000
  In  In123     1.0  0.026315789605263155  0.3939393938636364  0.1896293  1.0000
  Se  Se184     1.0  0.026315789605263155  0.3939393938636364  0.6763452799999999  1.0000
  In  In124     1.0  0.039473684078947364  0.40151515159090917  0.8103706999999999  1.0000
  Se  Se185     1.0  0.039473684078947364  0.40151515159090917  0.32365471999999995  1.0000
  Se  Se186     1.0  0.03947368421052631  0.3863636363636364  0.0  1.0000
  In  In125     1.0  0.02631578934210526  0.4242424243181818  0.8103706999999999  1.0000
  In  In126     1.0  0.03947368434210526  0.4166666665909091  0.1896293  1.0000
  Se  Se187     1.0  0.02631578934210526  0.4242424243181818  0.32365471999999995  1.0000
  Se  Se188     1.0  0.03947368434210526  0.4166666665909091  0.6763452799999999  1.0000
  Se  Se189     1.0  0.02631578947368421  0.4090909090909091  0.0  1.0000
  In  In127     1.0  0.026315789605263155  0.4393939393181818  0.1896293  1.0000
  Se  Se190     1.0  0.026315789605263155  0.4393939393181818  0.6763452799999999  1.0000
  In  In128     1.0  0.039473684078947364  0.4469696970454546  0.8103706999999999  1.0000
  Se  Se191     1.0  0.039473684078947364  0.4469696970454546  0.32365471999999995  1.0000
  Se  Se192     1.0  0.03947368421052631  0.4318181818181819  0.0  1.0000
  In  In129     1.0  0.02631578934210526  0.4696969697727273  0.8103706999999999  1.0000
  In  In130     1.0  0.03947368434210526  0.46212121204545453  0.1896293  1.0000
  Se  Se193     1.0  0.02631578934210526  0.4696969697727273  0.32365471999999995  1.0000
  Se  Se194     1.0  0.03947368434210526  0.46212121204545453  0.6763452799999999  1.0000
  Se  Se195     1.0  0.02631578947368421  0.4545454545454546  0.0  1.0000
  In  In131     1.0  0.026315789605263155  0.4848484847727273  0.1896293  1.0000
  Se  Se196     1.0  0.026315789605263155  0.4848484847727273  0.6763452799999999  1.0000
  In  In132     1.0  0.039473684078947364  0.49242424250000005  0.8103706999999999  1.0000
  Se  Se197     1.0  0.039473684078947364  0.49242424250000005  0.32365471999999995  1.0000
  Se  Se198     1.0  0.03947368421052631  0.47727272727272735  0.0  1.0000
  In  In133     1.0  0.02631578934210526  0.5151515152272728  0.8103706999999999  1.0000
  In  In134     1.0  0.03947368434210526  0.5075757575  0.1896293  1.0000
  Se  Se199     1.0  0.02631578934210526  0.5151515152272728  0.32365471999999995  1.0000
  Se  Se200     1.0  0.03947368434210526  0.5075757575  0.6763452799999999  1.0000
  Se  Se201     1.0  0.02631578947368421  0.5  0.0  1.0000
  In  In135     1.0  0.026315789605263155  0.5303030302272728  0.1896293  1.0000
  Se  Se202     1.0  0.026315789605263155  0.5303030302272728  0.6763452799999999  1.0000
  In  In136     1.0  0.039473684078947364  0.5378787879545455  0.8103706999999999  1.0000
  Se  Se203     1.0  0.039473684078947364  0.5378787879545455  0.32365471999999995  1.0000
  Se  Se204     1.0  0.03947368421052631  0.5227272727272728  0.0  1.0000
  In  In137     1.0  0.02631578934210526  0.5606060606818183  0.8103706999999999  1.0000
  In  In138     1.0  0.03947368434210526  0.5530303029545455  0.1896293  1.0000
  Se  Se205     1.0  0.02631578934210526  0.5606060606818183  0.32365471999999995  1.0000
  Se  Se206     1.0  0.03947368434210526  0.5530303029545455  0.6763452799999999  1.0000
  Se  Se207     1.0  0.02631578947368421  0.5454545454545455  0.0  1.0000
  In  In139     1.0  0.026315789605263155  0.5757575756818183  0.1896293  1.0000
  Se  Se208     1.0  0.026315789605263155  0.5757575756818183  0.6763452799999999  1.0000
  In  In140     1.0  0.039473684078947364  0.583333333409091  0.8103706999999999  1.0000
  Se  Se209     1.0  0.039473684078947364  0.583333333409091  0.32365471999999995  1.0000
  Se  Se210     1.0  0.03947368421052631  0.5681818181818183  0.0  1.0000
  In  In141     1.0  0.02631578934210526  0.6060606061363637  0.8103706999999999  1.0000
  In  In142     1.0  0.03947368434210526  0.598484848409091  0.1896293  1.0000
  Se  Se211     1.0  0.02631578934210526  0.6060606061363637  0.32365471999999995  1.0000
  Se  Se212     1.0  0.03947368434210526  0.598484848409091  0.6763452799999999  1.0000
  Se  Se213     1.0  0.02631578947368421  0.590909090909091  0.0  1.0000
  In  In143     1.0  0.026315789605263155  0.6212121211363637  0.1896293  1.0000
  Se  Se214     1.0  0.026315789605263155  0.6212121211363637  0.6763452799999999  1.0000
  In  In144     1.0  0.039473684078947364  0.6287878788636365  0.8103706999999999  1.0000
  Se  Se215     1.0  0.039473684078947364  0.6287878788636365  0.32365471999999995  1.0000
  Se  Se216     1.0  0.03947368421052631  0.6136363636363638  0.0  1.0000
  In  In145     1.0  0.02631578934210526  0.6515151515909091  0.8103706999999999  1.0000
  In  In146     1.0  0.03947368434210526  0.6439393938636364  0.1896293  1.0000
  Se  Se217     1.0  0.02631578934210526  0.6515151515909091  0.32365471999999995  1.0000
  Se  Se218     1.0  0.03947368434210526  0.6439393938636364  0.6763452799999999  1.0000
  Se  Se219     1.0  0.02631578947368421  0.6363636363636365  0.0  1.0000
  In  In147     1.0  0.026315789605263155  0.6666666665909092  0.1896293  1.0000
  Se  Se220     1.0  0.026315789605263155  0.6666666665909092  0.6763452799999999  1.0000
  In  In148     1.0  0.039473684078947364  0.6742424243181819  0.8103706999999999  1.0000
  Se  Se221     1.0  0.039473684078947364  0.6742424243181819  0.32365471999999995  1.0000
  Se  Se222     1.0  0.03947368421052631  0.6590909090909092  0.0  1.0000
  In  In149     1.0  0.02631578934210526  0.6969696970454546  0.8103706999999999  1.0000
  In  In150     1.0  0.03947368434210526  0.6893939393181818  0.1896293  1.0000
  Se  Se223     1.0  0.02631578934210526  0.6969696970454546  0.32365471999999995  1.0000
  Se  Se224     1.0  0.03947368434210526  0.6893939393181818  0.6763452799999999  1.0000
  Se  Se225     1.0  0.02631578947368421  0.6818181818181819  0.0  1.0000
  In  In151     1.0  0.026315789605263155  0.7121212120454546  0.1896293  1.0000
  Se  Se226     1.0  0.026315789605263155  0.7121212120454546  0.6763452799999999  1.0000
  In  In152     1.0  0.039473684078947364  0.7196969697727273  0.8103706999999999  1.0000
  Se  Se227     1.0  0.039473684078947364  0.7196969697727273  0.32365471999999995  1.0000
  Se  Se228     1.0  0.03947368421052631  0.7045454545454547  0.0  1.0000
  In  In153     1.0  0.02631578934210526  0.7424242425  0.8103706999999999  1.0000
  In  In154     1.0  0.03947368434210526  0.7348484847727274  0.1896293  1.0000
  Se  Se229     1.0  0.02631578934210526  0.7424242425  0.32365471999999995  1.0000
  Se  Se230     1.0  0.03947368434210526  0.7348484847727274  0.6763452799999999  1.0000
  Se  Se231     1.0  0.02631578947368421  0.7272727272727273  0.0  1.0000
  In  In155     1.0  0.026315789605263155  0.7575757575000001  0.1896293  1.0000
  Se  Se232     1.0  0.026315789605263155  0.7575757575000001  0.6763452799999999  1.0000
  In  In156     1.0  0.039473684078947364  0.7651515152272729  0.8103706999999999  1.0000
  Se  Se233     1.0  0.039473684078947364  0.7651515152272729  0.32365471999999995  1.0000
  Se  Se234     1.0  0.03947368421052631  0.7500000000000001  0.0  1.0000
  In  In157     1.0  0.02631578934210526  0.7878787879545455  0.8103706999999999  1.0000
  In  In158     1.0  0.03947368434210526  0.7803030302272728  0.1896293  1.0000
  Se  Se235     1.0  0.02631578934210526  0.7878787879545455  0.32365471999999995  1.0000
  Se  Se236     1.0  0.03947368434210526  0.7803030302272728  0.6763452799999999  1.0000
  Se  Se237     1.0  0.02631578947368421  0.7727272727272728  0.0  1.0000
  In  In159     1.0  0.026315789605263155  0.8030303029545455  0.1896293  1.0000
  Se  Se238     1.0  0.026315789605263155  0.8030303029545455  0.6763452799999999  1.0000
  In  In160     1.0  0.039473684078947364  0.8106060606818183  0.8103706999999999  1.0000
  Se  Se239     1.0  0.039473684078947364  0.8106060606818183  0.32365471999999995  1.0000
  Se  Se240     1.0  0.03947368421052631  0.7954545454545455  0.0  1.0000
  In  In161     1.0  0.02631578934210526  0.833333333409091  0.8103706999999999  1.0000
  In  In162     1.0  0.03947368434210526  0.8257575756818182  0.1896293  1.0000
  Se  Se241     1.0  0.02631578934210526  0.833333333409091  0.32365471999999995  1.0000
  Se  Se242     1.0  0.03947368434210526  0.8257575756818182  0.6763452799999999  1.0000
  Se  Se243     1.0  0.02631578947368421  0.8181818181818182  0.0  1.0000
  In  In163     1.0  0.026315789605263155  0.848484848409091  0.1896293  1.0000
  Se  Se244     1.0  0.026315789605263155  0.848484848409091  0.6763452799999999  1.0000
  In  In164     1.0  0.039473684078947364  0.8560606061363636  0.8103706999999999  1.0000
  Se  Se245     1.0  0.039473684078947364  0.8560606061363636  0.32365471999999995  1.0000
  Se  Se246     1.0  0.03947368421052631  0.840909090909091  0.0  1.0000
  In  In165     1.0  0.02631578934210526  0.8787878788636366  0.8103706999999999  1.0000
  In  In166     1.0  0.03947368434210526  0.8712121211363637  0.1896293  1.0000
  Se  Se247     1.0  0.02631578934210526  0.8787878788636366  0.32365471999999995  1.0000
  Se  Se248     1.0  0.03947368434210526  0.8712121211363637  0.6763452799999999  1.0000
  Se  Se249     1.0  0.02631578947368421  0.8636363636363638  0.0  1.0000
  In  In167     1.0  0.026315789605263155  0.8939393938636365  0.1896293  1.0000
  Se  Se250     1.0  0.026315789605263155  0.8939393938636365  0.6763452799999999  1.0000
  In  In168     1.0  0.039473684078947364  0.9015151515909092  0.8103706999999999  1.0000
  Se  Se251     1.0  0.039473684078947364  0.9015151515909092  0.32365471999999995  1.0000
  Se  Se252     1.0  0.03947368421052631  0.8863636363636366  0.0  1.0000
  In  In169     1.0  0.02631578934210526  0.9242424243181819  0.8103706999999999  1.0000
  In  In170     1.0  0.03947368434210526  0.9166666665909091  0.1896293  1.0000
  Se  Se253     1.0  0.02631578934210526  0.9242424243181819  0.32365471999999995  1.0000
  Se  Se254     1.0  0.03947368434210526  0.9166666665909091  0.6763452799999999  1.0000
  Se  Se255     1.0  0.02631578947368421  0.9090909090909092  0.0  1.0000
  In  In171     1.0  0.026315789605263155  0.9393939393181818  0.1896293  1.0000
  Se  Se256     1.0  0.026315789605263155  0.9393939393181818  0.6763452799999999  1.0000
  In  In172     1.0  0.039473684078947364  0.9469696970454545  0.8103706999999999  1.0000
  Se  Se257     1.0  0.039473684078947364  0.9469696970454545  0.32365471999999995  1.0000
  Se  Se258     1.0  0.03947368421052631  0.9318181818181819  0.0  1.0000
  In  In173     1.0  0.02631578934210526  0.9696969697727275  0.8103706999999999  1.0000
  In  In174     1.0  0.03947368434210526  0.9621212120454546  0.1896293  1.0000
  Se  Se259     1.0  0.02631578934210526  0.9696969697727275  0.32365471999999995  1.0000
  Se  Se260     1.0  0.03947368434210526  0.9621212120454546  0.6763452799999999  1.0000
  Se  Se261     1.0  0.02631578947368421  0.9545454545454547  0.0  1.0000
  In  In175     1.0  0.026315789605263155  0.9848484847727275  0.1896293  1.0000
  Se  Se262     1.0  0.026315789605263155  0.9848484847727275  0.6763452799999999  1.0000
  In  In176     1.0  0.039473684078947364  0.9924242425  0.8103706999999999  1.0000
  Se  Se263     1.0  0.039473684078947364  0.9924242425  0.32365471999999995  1.0000
  Se  Se264     1.0  0.03947368421052631  0.9772727272727274  0.0  1.0000
  In  In177     1.0  0.05263157881578947  0.01515151522727273  0.8103706999999999  1.0000
  In  In178     1.0  0.06578947381578946  0.0075757575  0.1896293  1.0000
  Se  Se265     1.0  0.05263157881578947  0.01515151522727273  0.32365471999999995  1.0000
  Se  Se266     1.0  0.06578947381578946  0.0075757575  0.6763452799999999  1.0000
  Se  Se267     1.0  0.05263157894736842  0.0  0.0  1.0000
  In  In179     1.0  0.05263157907894736  0.030303030227272734  0.1896293  1.0000
  Se  Se268     1.0  0.05263157907894736  0.030303030227272734  0.6763452799999999  1.0000
  In  In180     1.0  0.06578947355263158  0.03787878795454546  0.8103706999999999  1.0000
  Se  Se269     1.0  0.06578947355263158  0.03787878795454546  0.32365471999999995  1.0000
  Se  Se270     1.0  0.06578947368421052  0.022727272727272728  0.0  1.0000
  In  In181     1.0  0.05263157881578947  0.06060606068181818  0.8103706999999999  1.0000
  In  In182     1.0  0.06578947381578946  0.05303030295454546  0.1896293  1.0000
  Se  Se271     1.0  0.05263157881578947  0.06060606068181818  0.32365471999999995  1.0000
  Se  Se272     1.0  0.06578947381578946  0.05303030295454546  0.6763452799999999  1.0000
  Se  Se273     1.0  0.05263157894736842  0.045454545454545456  0.0  1.0000
  In  In183     1.0  0.05263157907894736  0.07575757568181819  0.1896293  1.0000
  Se  Se274     1.0  0.05263157907894736  0.07575757568181819  0.6763452799999999  1.0000
  In  In184     1.0  0.06578947355263158  0.08333333340909092  0.8103706999999999  1.0000
  Se  Se275     1.0  0.06578947355263158  0.08333333340909092  0.32365471999999995  1.0000
  Se  Se276     1.0  0.06578947368421052  0.06818181818181819  0.0  1.0000
  In  In185     1.0  0.05263157881578947  0.10606060613636366  0.8103706999999999  1.0000
  In  In186     1.0  0.06578947381578946  0.09848484840909091  0.1896293  1.0000
  Se  Se277     1.0  0.05263157881578947  0.10606060613636366  0.32365471999999995  1.0000
  Se  Se278     1.0  0.06578947381578946  0.09848484840909091  0.6763452799999999  1.0000
  Se  Se279     1.0  0.05263157894736842  0.09090909090909091  0.0  1.0000
  In  In187     1.0  0.05263157907894736  0.12121212113636365  0.1896293  1.0000
  Se  Se280     1.0  0.05263157907894736  0.12121212113636365  0.6763452799999999  1.0000
  In  In188     1.0  0.06578947355263158  0.12878787886363638  0.8103706999999999  1.0000
  Se  Se281     1.0  0.06578947355263158  0.12878787886363638  0.32365471999999995  1.0000
  Se  Se282     1.0  0.06578947368421052  0.11363636363636365  0.0  1.0000
  In  In189     1.0  0.05263157881578947  0.15151515159090911  0.8103706999999999  1.0000
  In  In190     1.0  0.06578947381578946  0.1439393938636364  0.1896293  1.0000
  Se  Se283     1.0  0.05263157881578947  0.15151515159090911  0.32365471999999995  1.0000
  Se  Se284     1.0  0.06578947381578946  0.1439393938636364  0.6763452799999999  1.0000
  Se  Se285     1.0  0.05263157894736842  0.13636363636363638  0.0  1.0000
  In  In191     1.0  0.05263157907894736  0.16666666659090912  0.1896293  1.0000
  Se  Se286     1.0  0.05263157907894736  0.16666666659090912  0.6763452799999999  1.0000
  In  In192     1.0  0.06578947355263158  0.17424242431818185  0.8103706999999999  1.0000
  Se  Se287     1.0  0.06578947355263158  0.17424242431818185  0.32365471999999995  1.0000
  Se  Se288     1.0  0.06578947368421052  0.15909090909090912  0.0  1.0000
  In  In193     1.0  0.05263157881578947  0.19696969704545458  0.8103706999999999  1.0000
  In  In194     1.0  0.06578947381578946  0.18939393931818185  0.1896293  1.0000
  Se  Se289     1.0  0.05263157881578947  0.19696969704545458  0.32365471999999995  1.0000
  Se  Se290     1.0  0.06578947381578946  0.18939393931818185  0.6763452799999999  1.0000
  Se  Se291     1.0  0.05263157894736842  0.18181818181818182  0.0  1.0000
  In  In195     1.0  0.05263157907894736  0.21212121204545456  0.1896293  1.0000
  Se  Se292     1.0  0.05263157907894736  0.21212121204545456  0.6763452799999999  1.0000
  In  In196     1.0  0.06578947355263158  0.21969696977272726  0.8103706999999999  1.0000
  Se  Se293     1.0  0.06578947355263158  0.21969696977272726  0.32365471999999995  1.0000
  Se  Se294     1.0  0.06578947368421052  0.20454545454545456  0.0  1.0000
  In  In197     1.0  0.05263157881578947  0.2424242425  0.8103706999999999  1.0000
  In  In198     1.0  0.06578947381578946  0.2348484847727273  0.1896293  1.0000
  Se  Se295     1.0  0.05263157881578947  0.2424242425  0.32365471999999995  1.0000
  Se  Se296     1.0  0.06578947381578946  0.2348484847727273  0.6763452799999999  1.0000
  Se  Se297     1.0  0.05263157894736842  0.2272727272727273  0.0  1.0000
  In  In199     1.0  0.05263157907894736  0.2575757575  0.1896293  1.0000
  Se  Se298     1.0  0.05263157907894736  0.2575757575  0.6763452799999999  1.0000
  In  In200     1.0  0.06578947355263158  0.2651515152272727  0.8103706999999999  1.0000
  Se  Se299     1.0  0.06578947355263158  0.2651515152272727  0.32365471999999995  1.0000
  Se  Se300     1.0  0.06578947368421052  0.25  0.0  1.0000
  In  In201     1.0  0.05263157881578947  0.28787878795454547  0.8103706999999999  1.0000
  In  In202     1.0  0.06578947381578946  0.28030303022727276  0.1896293  1.0000
  Se  Se301     1.0  0.05263157881578947  0.28787878795454547  0.32365471999999995  1.0000
  Se  Se302     1.0  0.06578947381578946  0.28030303022727276  0.6763452799999999  1.0000
  Se  Se303     1.0  0.05263157894736842  0.27272727272727276  0.0  1.0000
  In  In203     1.0  0.05263157907894736  0.3030303029545455  0.1896293  1.0000
  Se  Se304     1.0  0.05263157907894736  0.3030303029545455  0.6763452799999999  1.0000
  In  In204     1.0  0.06578947355263158  0.3106060606818183  0.8103706999999999  1.0000
  Se  Se305     1.0  0.06578947355263158  0.3106060606818183  0.32365471999999995  1.0000
  Se  Se306     1.0  0.06578947368421052  0.2954545454545455  0.0  1.0000
  In  In205     1.0  0.05263157881578947  0.33333333340909094  0.8103706999999999  1.0000
  In  In206     1.0  0.06578947381578946  0.32575757568181823  0.1896293  1.0000
  Se  Se307     1.0  0.05263157881578947  0.33333333340909094  0.32365471999999995  1.0000
  Se  Se308     1.0  0.06578947381578946  0.32575757568181823  0.6763452799999999  1.0000
  Se  Se309     1.0  0.05263157894736842  0.31818181818181823  0.0  1.0000
  In  In207     1.0  0.05263157907894736  0.34848484840909094  0.1896293  1.0000
  Se  Se310     1.0  0.05263157907894736  0.34848484840909094  0.6763452799999999  1.0000
  In  In208     1.0  0.06578947355263158  0.3560606061363637  0.8103706999999999  1.0000
  Se  Se311     1.0  0.06578947355263158  0.3560606061363637  0.32365471999999995  1.0000
  Se  Se312     1.0  0.06578947368421052  0.34090909090909094  0.0  1.0000
  In  In209     1.0  0.05263157881578947  0.3787878788636364  0.8103706999999999  1.0000
  In  In210     1.0  0.06578947381578946  0.3712121211363637  0.1896293  1.0000
  Se  Se313     1.0  0.05263157881578947  0.3787878788636364  0.32365471999999995  1.0000
  Se  Se314     1.0  0.06578947381578946  0.3712121211363637  0.6763452799999999  1.0000
  Se  Se315     1.0  0.05263157894736842  0.36363636363636365  0.0  1.0000
  In  In211     1.0  0.05263157907894736  0.3939393938636364  0.1896293  1.0000
  Se  Se316     1.0  0.05263157907894736  0.3939393938636364  0.6763452799999999  1.0000
  In  In212     1.0  0.06578947355263158  0.40151515159090917  0.8103706999999999  1.0000
  Se  Se317     1.0  0.06578947355263158  0.40151515159090917  0.32365471999999995  1.0000
  Se  Se318     1.0  0.06578947368421052  0.3863636363636364  0.0  1.0000
  In  In213     1.0  0.05263157881578947  0.4242424243181818  0.8103706999999999  1.0000
  In  In214     1.0  0.06578947381578946  0.4166666665909091  0.1896293  1.0000
  Se  Se319     1.0  0.05263157881578947  0.4242424243181818  0.32365471999999995  1.0000
  Se  Se320     1.0  0.06578947381578946  0.4166666665909091  0.6763452799999999  1.0000
  Se  Se321     1.0  0.05263157894736842  0.4090909090909091  0.0  1.0000
  In  In215     1.0  0.05263157907894736  0.4393939393181818  0.1896293  1.0000
  Se  Se322     1.0  0.05263157907894736  0.4393939393181818  0.6763452799999999  1.0000
  In  In216     1.0  0.06578947355263158  0.4469696970454546  0.8103706999999999  1.0000
  Se  Se323     1.0  0.06578947355263158  0.4469696970454546  0.32365471999999995  1.0000
  Se  Se324     1.0  0.06578947368421052  0.4318181818181819  0.0  1.0000
  In  In217     1.0  0.05263157881578947  0.4696969697727273  0.8103706999999999  1.0000
  In  In218     1.0  0.06578947381578946  0.46212121204545453  0.1896293  1.0000
  Se  Se325     1.0  0.05263157881578947  0.4696969697727273  0.32365471999999995  1.0000
  Se  Se326     1.0  0.06578947381578946  0.46212121204545453  0.6763452799999999  1.0000
  Se  Se327     1.0  0.05263157894736842  0.4545454545454546  0.0  1.0000
  In  In219     1.0  0.05263157907894736  0.4848484847727273  0.1896293  1.0000
  Se  Se328     1.0  0.05263157907894736  0.4848484847727273  0.6763452799999999  1.0000
  In  In220     1.0  0.06578947355263158  0.49242424250000005  0.8103706999999999  1.0000
  Se  Se329     1.0  0.06578947355263158  0.49242424250000005  0.32365471999999995  1.0000
  Se  Se330     1.0  0.06578947368421052  0.47727272727272735  0.0  1.0000
  In  In221     1.0  0.05263157881578947  0.5151515152272728  0.8103706999999999  1.0000
  In  In222     1.0  0.06578947381578946  0.5075757575  0.1896293  1.0000
  Se  Se331     1.0  0.05263157881578947  0.5151515152272728  0.32365471999999995  1.0000
  Se  Se332     1.0  0.06578947381578946  0.5075757575  0.6763452799999999  1.0000
  Se  Se333     1.0  0.05263157894736842  0.5  0.0  1.0000
  In  In223     1.0  0.05263157907894736  0.5303030302272728  0.1896293  1.0000
  Se  Se334     1.0  0.05263157907894736  0.5303030302272728  0.6763452799999999  1.0000
  In  In224     1.0  0.06578947355263158  0.5378787879545455  0.8103706999999999  1.0000
  Se  Se335     1.0  0.06578947355263158  0.5378787879545455  0.32365471999999995  1.0000
  Se  Se336     1.0  0.06578947368421052  0.5227272727272728  0.0  1.0000
  In  In225     1.0  0.05263157881578947  0.5606060606818183  0.8103706999999999  1.0000
  In  In226     1.0  0.06578947381578946  0.5530303029545455  0.1896293  1.0000
  Se  Se337     1.0  0.05263157881578947  0.5606060606818183  0.32365471999999995  1.0000
  Se  Se338     1.0  0.06578947381578946  0.5530303029545455  0.6763452799999999  1.0000
  Se  Se339     1.0  0.05263157894736842  0.5454545454545455  0.0  1.0000
  In  In227     1.0  0.05263157907894736  0.5757575756818183  0.1896293  1.0000
  Se  Se340     1.0  0.05263157907894736  0.5757575756818183  0.6763452799999999  1.0000
  In  In228     1.0  0.06578947355263158  0.583333333409091  0.8103706999999999  1.0000
  Se  Se341     1.0  0.06578947355263158  0.583333333409091  0.32365471999999995  1.0000
  Se  Se342     1.0  0.06578947368421052  0.5681818181818183  0.0  1.0000
  In  In229     1.0  0.05263157881578947  0.6060606061363637  0.8103706999999999  1.0000
  In  In230     1.0  0.06578947381578946  0.598484848409091  0.1896293  1.0000
  Se  Se343     1.0  0.05263157881578947  0.6060606061363637  0.32365471999999995  1.0000
  Se  Se344     1.0  0.06578947381578946  0.598484848409091  0.6763452799999999  1.0000
  Se  Se345     1.0  0.05263157894736842  0.590909090909091  0.0  1.0000
  In  In231     1.0  0.05263157907894736  0.6212121211363637  0.1896293  1.0000
  Se  Se346     1.0  0.05263157907894736  0.6212121211363637  0.6763452799999999  1.0000
  In  In232     1.0  0.06578947355263158  0.6287878788636365  0.8103706999999999  1.0000
  Se  Se347     1.0  0.06578947355263158  0.6287878788636365  0.32365471999999995  1.0000
  Se  Se348     1.0  0.06578947368421052  0.6136363636363638  0.0  1.0000
  In  In233     1.0  0.05263157881578947  0.6515151515909091  0.8103706999999999  1.0000
  In  In234     1.0  0.06578947381578946  0.6439393938636364  0.1896293  1.0000
  Se  Se349     1.0  0.05263157881578947  0.6515151515909091  0.32365471999999995  1.0000
  Se  Se350     1.0  0.06578947381578946  0.6439393938636364  0.6763452799999999  1.0000
  Se  Se351     1.0  0.05263157894736842  0.6363636363636365  0.0  1.0000
  In  In235     1.0  0.05263157907894736  0.6666666665909092  0.1896293  1.0000
  Se  Se352     1.0  0.05263157907894736  0.6666666665909092  0.6763452799999999  1.0000
  In  In236     1.0  0.06578947355263158  0.6742424243181819  0.8103706999999999  1.0000
  Se  Se353     1.0  0.06578947355263158  0.6742424243181819  0.32365471999999995  1.0000
  Se  Se354     1.0  0.06578947368421052  0.6590909090909092  0.0  1.0000
  In  In237     1.0  0.05263157881578947  0.6969696970454546  0.8103706999999999  1.0000
  In  In238     1.0  0.06578947381578946  0.6893939393181818  0.1896293  1.0000
  Se  Se355     1.0  0.05263157881578947  0.6969696970454546  0.32365471999999995  1.0000
  Se  Se356     1.0  0.06578947381578946  0.6893939393181818  0.6763452799999999  1.0000
  Se  Se357     1.0  0.05263157894736842  0.6818181818181819  0.0  1.0000
  In  In239     1.0  0.05263157907894736  0.7121212120454546  0.1896293  1.0000
  Se  Se358     1.0  0.05263157907894736  0.7121212120454546  0.6763452799999999  1.0000
  In  In240     1.0  0.06578947355263158  0.7196969697727273  0.8103706999999999  1.0000
  Se  Se359     1.0  0.06578947355263158  0.7196969697727273  0.32365471999999995  1.0000
  Se  Se360     1.0  0.06578947368421052  0.7045454545454547  0.0  1.0000
  In  In241     1.0  0.05263157881578947  0.7424242425  0.8103706999999999  1.0000
  In  In242     1.0  0.06578947381578946  0.7348484847727274  0.1896293  1.0000
  Se  Se361     1.0  0.05263157881578947  0.7424242425  0.32365471999999995  1.0000
  Se  Se362     1.0  0.06578947381578946  0.7348484847727274  0.6763452799999999  1.0000
  Se  Se363     1.0  0.05263157894736842  0.7272727272727273  0.0  1.0000
  In  In243     1.0  0.05263157907894736  0.7575757575000001  0.1896293  1.0000
  Se  Se364     1.0  0.05263157907894736  0.7575757575000001  0.6763452799999999  1.0000
  In  In244     1.0  0.06578947355263158  0.7651515152272729  0.8103706999999999  1.0000
  Se  Se365     1.0  0.06578947355263158  0.7651515152272729  0.32365471999999995  1.0000
  Se  Se366     1.0  0.06578947368421052  0.7500000000000001  0.0  1.0000
  In  In245     1.0  0.05263157881578947  0.7878787879545455  0.8103706999999999  1.0000
  In  In246     1.0  0.06578947381578946  0.7803030302272728  0.1896293  1.0000
  Se  Se367     1.0  0.05263157881578947  0.7878787879545455  0.32365471999999995  1.0000
  Se  Se368     1.0  0.06578947381578946  0.7803030302272728  0.6763452799999999  1.0000
  Se  Se369     1.0  0.05263157894736842  0.7727272727272728  0.0  1.0000
  In  In247     1.0  0.05263157907894736  0.8030303029545455  0.1896293  1.0000
  Se  Se370     1.0  0.05263157907894736  0.8030303029545455  0.6763452799999999  1.0000
  In  In248     1.0  0.06578947355263158  0.8106060606818183  0.8103706999999999  1.0000
  Se  Se371     1.0  0.06578947355263158  0.8106060606818183  0.32365471999999995  1.0000
  Se  Se372     1.0  0.06578947368421052  0.7954545454545455  0.0  1.0000
  In  In249     1.0  0.05263157881578947  0.833333333409091  0.8103706999999999  1.0000
  In  In250     1.0  0.06578947381578946  0.8257575756818182  0.1896293  1.0000
  Se  Se373     1.0  0.05263157881578947  0.833333333409091  0.32365471999999995  1.0000
  Se  Se374     1.0  0.06578947381578946  0.8257575756818182  0.6763452799999999  1.0000
  Se  Se375     1.0  0.05263157894736842  0.8181818181818182  0.0  1.0000
  In  In251     1.0  0.05263157907894736  0.848484848409091  0.1896293  1.0000
  Se  Se376     1.0  0.05263157907894736  0.848484848409091  0.6763452799999999  1.0000
  In  In252     1.0  0.06578947355263158  0.8560606061363636  0.8103706999999999  1.0000
  Se  Se377     1.0  0.06578947355263158  0.8560606061363636  0.32365471999999995  1.0000
  Se  Se378     1.0  0.06578947368421052  0.840909090909091  0.0  1.0000
  In  In253     1.0  0.05263157881578947  0.8787878788636366  0.8103706999999999  1.0000
  In  In254     1.0  0.06578947381578946  0.8712121211363637  0.1896293  1.0000
  Se  Se379     1.0  0.05263157881578947  0.8787878788636366  0.32365471999999995  1.0000
  Se  Se380     1.0  0.06578947381578946  0.8712121211363637  0.6763452799999999  1.0000
  Se  Se381     1.0  0.05263157894736842  0.8636363636363638  0.0  1.0000
  In  In255     1.0  0.05263157907894736  0.8939393938636365  0.1896293  1.0000
  Se  Se382     1.0  0.05263157907894736  0.8939393938636365  0.6763452799999999  1.0000
  In  In256     1.0  0.06578947355263158  0.9015151515909092  0.8103706999999999  1.0000
  Se  Se383     1.0  0.06578947355263158  0.9015151515909092  0.32365471999999995  1.0000
  Se  Se384     1.0  0.06578947368421052  0.8863636363636366  0.0  1.0000
  In  In257     1.0  0.05263157881578947  0.9242424243181819  0.8103706999999999  1.0000
  In  In258     1.0  0.06578947381578946  0.9166666665909091  0.1896293  1.0000
  Se  Se385     1.0  0.05263157881578947  0.9242424243181819  0.32365471999999995  1.0000
  Se  Se386     1.0  0.06578947381578946  0.9166666665909091  0.6763452799999999  1.0000
  Se  Se387     1.0  0.05263157894736842  0.9090909090909092  0.0  1.0000
  In  In259     1.0  0.05263157907894736  0.9393939393181818  0.1896293  1.0000
  Se  Se388     1.0  0.05263157907894736  0.9393939393181818  0.6763452799999999  1.0000
  In  In260     1.0  0.06578947355263158  0.9469696970454545  0.8103706999999999  1.0000
  Se  Se389     1.0  0.06578947355263158  0.9469696970454545  0.32365471999999995  1.0000
  Se  Se390     1.0  0.06578947368421052  0.9318181818181819  0.0  1.0000
  In  In261     1.0  0.05263157881578947  0.9696969697727275  0.8103706999999999  1.0000
  In  In262     1.0  0.06578947381578946  0.9621212120454546  0.1896293  1.0000
  Se  Se391     1.0  0.05263157881578947  0.9696969697727275  0.32365471999999995  1.0000
  Se  Se392     1.0  0.06578947381578946  0.9621212120454546  0.6763452799999999  1.0000
  Se  Se393     1.0  0.05263157894736842  0.9545454545454547  0.0  1.0000
  In  In263     1.0  0.05263157907894736  0.9848484847727275  0.1896293  1.0000
  Se  Se394     1.0  0.05263157907894736  0.9848484847727275  0.6763452799999999  1.0000
  In  In264     1.0  0.06578947355263158  0.9924242425  0.8103706999999999  1.0000
  Se  Se395     1.0  0.06578947355263158  0.9924242425  0.32365471999999995  1.0000
  Se  Se396     1.0  0.06578947368421052  0.9772727272727274  0.0  1.0000
  In  In265     1.0  0.07894736828947367  0.01515151522727273  0.8103706999999999  1.0000
  In  In266     1.0  0.09210526328947367  0.0075757575  0.1896293  1.0000
  Se  Se397     1.0  0.07894736828947367  0.01515151522727273  0.32365471999999995  1.0000
  Se  Se398     1.0  0.09210526328947367  0.0075757575  0.6763452799999999  1.0000
  Se  Se399     1.0  0.07894736842105261  0.0  0.0  1.0000
  In  In267     1.0  0.07894736855263157  0.030303030227272734  0.1896293  1.0000
  Se  Se400     1.0  0.07894736855263157  0.030303030227272734  0.6763452799999999  1.0000
  In  In268     1.0  0.09210526302631578  0.03787878795454546  0.8103706999999999  1.0000
  Se  Se401     1.0  0.09210526302631578  0.03787878795454546  0.32365471999999995  1.0000
  Se  Se402     1.0  0.09210526315789473  0.022727272727272728  0.0  1.0000
  In  In269     1.0  0.07894736828947367  0.06060606068181818  0.8103706999999999  1.0000
  In  In270     1.0  0.09210526328947367  0.05303030295454546  0.1896293  1.0000
  Se  Se403     1.0  0.07894736828947367  0.06060606068181818  0.32365471999999995  1.0000
  Se  Se404     1.0  0.09210526328947367  0.05303030295454546  0.6763452799999999  1.0000
  Se  Se405     1.0  0.07894736842105261  0.045454545454545456  0.0  1.0000
  In  In271     1.0  0.07894736855263157  0.07575757568181819  0.1896293  1.0000
  Se  Se406     1.0  0.07894736855263157  0.07575757568181819  0.6763452799999999  1.0000
  In  In272     1.0  0.09210526302631578  0.08333333340909092  0.8103706999999999  1.0000
  Se  Se407     1.0  0.09210526302631578  0.08333333340909092  0.32365471999999995  1.0000
  Se  Se408     1.0  0.09210526315789473  0.06818181818181819  0.0  1.0000
  In  In273     1.0  0.07894736828947367  0.10606060613636366  0.8103706999999999  1.0000
  In  In274     1.0  0.09210526328947367  0.09848484840909091  0.1896293  1.0000
  Se  Se409     1.0  0.07894736828947367  0.10606060613636366  0.32365471999999995  1.0000
  Se  Se410     1.0  0.09210526328947367  0.09848484840909091  0.6763452799999999  1.0000
  Se  Se411     1.0  0.07894736842105261  0.09090909090909091  0.0  1.0000
  In  In275     1.0  0.07894736855263157  0.12121212113636365  0.1896293  1.0000
  Se  Se412     1.0  0.07894736855263157  0.12121212113636365  0.6763452799999999  1.0000
  In  In276     1.0  0.09210526302631578  0.12878787886363638  0.8103706999999999  1.0000
  Se  Se413     1.0  0.09210526302631578  0.12878787886363638  0.32365471999999995  1.0000
  Se  Se414     1.0  0.09210526315789473  0.11363636363636365  0.0  1.0000
  In  In277     1.0  0.07894736828947367  0.15151515159090911  0.8103706999999999  1.0000
  In  In278     1.0  0.09210526328947367  0.1439393938636364  0.1896293  1.0000
  Se  Se415     1.0  0.07894736828947367  0.15151515159090911  0.32365471999999995  1.0000
  Se  Se416     1.0  0.09210526328947367  0.1439393938636364  0.6763452799999999  1.0000
  Se  Se417     1.0  0.07894736842105261  0.13636363636363638  0.0  1.0000
  In  In279     1.0  0.07894736855263157  0.16666666659090912  0.1896293  1.0000
  Se  Se418     1.0  0.07894736855263157  0.16666666659090912  0.6763452799999999  1.0000
  In  In280     1.0  0.09210526302631578  0.17424242431818185  0.8103706999999999  1.0000
  Se  Se419     1.0  0.09210526302631578  0.17424242431818185  0.32365471999999995  1.0000
  Se  Se420     1.0  0.09210526315789473  0.15909090909090912  0.0  1.0000
  In  In281     1.0  0.07894736828947367  0.19696969704545458  0.8103706999999999  1.0000
  In  In282     1.0  0.09210526328947367  0.18939393931818185  0.1896293  1.0000
  Se  Se421     1.0  0.07894736828947367  0.19696969704545458  0.32365471999999995  1.0000
  Se  Se422     1.0  0.09210526328947367  0.18939393931818185  0.6763452799999999  1.0000
  Se  Se423     1.0  0.07894736842105261  0.18181818181818182  0.0  1.0000
  In  In283     1.0  0.07894736855263157  0.21212121204545456  0.1896293  1.0000
  Se  Se424     1.0  0.07894736855263157  0.21212121204545456  0.6763452799999999  1.0000
  In  In284     1.0  0.09210526302631578  0.21969696977272726  0.8103706999999999  1.0000
  Se  Se425     1.0  0.09210526302631578  0.21969696977272726  0.32365471999999995  1.0000
  Se  Se426     1.0  0.09210526315789473  0.20454545454545456  0.0  1.0000
  In  In285     1.0  0.07894736828947367  0.2424242425  0.8103706999999999  1.0000
  In  In286     1.0  0.09210526328947367  0.2348484847727273  0.1896293  1.0000
  Se  Se427     1.0  0.07894736828947367  0.2424242425  0.32365471999999995  1.0000
  Se  Se428     1.0  0.09210526328947367  0.2348484847727273  0.6763452799999999  1.0000
  Se  Se429     1.0  0.07894736842105261  0.2272727272727273  0.0  1.0000
  In  In287     1.0  0.07894736855263157  0.2575757575  0.1896293  1.0000
  Se  Se430     1.0  0.07894736855263157  0.2575757575  0.6763452799999999  1.0000
  In  In288     1.0  0.09210526302631578  0.2651515152272727  0.8103706999999999  1.0000
  Se  Se431     1.0  0.09210526302631578  0.2651515152272727  0.32365471999999995  1.0000
  Se  Se432     1.0  0.09210526315789473  0.25  0.0  1.0000
  In  In289     1.0  0.07894736828947367  0.28787878795454547  0.8103706999999999  1.0000
  In  In290     1.0  0.09210526328947367  0.28030303022727276  0.1896293  1.0000
  Se  Se433     1.0  0.07894736828947367  0.28787878795454547  0.32365471999999995  1.0000
  Se  Se434     1.0  0.09210526328947367  0.28030303022727276  0.6763452799999999  1.0000
  Se  Se435     1.0  0.07894736842105261  0.27272727272727276  0.0  1.0000
  In  In291     1.0  0.07894736855263157  0.3030303029545455  0.1896293  1.0000
  Se  Se436     1.0  0.07894736855263157  0.3030303029545455  0.6763452799999999  1.0000
  In  In292     1.0  0.09210526302631578  0.3106060606818183  0.8103706999999999  1.0000
  Se  Se437     1.0  0.09210526302631578  0.3106060606818183  0.32365471999999995  1.0000
  Se  Se438     1.0  0.09210526315789473  0.2954545454545455  0.0  1.0000
  In  In293     1.0  0.07894736828947367  0.33333333340909094  0.8103706999999999  1.0000
  In  In294     1.0  0.09210526328947367  0.32575757568181823  0.1896293  1.0000
  Se  Se439     1.0  0.07894736828947367  0.33333333340909094  0.32365471999999995  1.0000
  Se  Se440     1.0  0.09210526328947367  0.32575757568181823  0.6763452799999999  1.0000
  Se  Se441     1.0  0.07894736842105261  0.31818181818181823  0.0  1.0000
  In  In295     1.0  0.07894736855263157  0.34848484840909094  0.1896293  1.0000
  Se  Se442     1.0  0.07894736855263157  0.34848484840909094  0.6763452799999999  1.0000
  In  In296     1.0  0.09210526302631578  0.3560606061363637  0.8103706999999999  1.0000
  Se  Se443     1.0  0.09210526302631578  0.3560606061363637  0.32365471999999995  1.0000
  Se  Se444     1.0  0.09210526315789473  0.34090909090909094  0.0  1.0000
  In  In297     1.0  0.07894736828947367  0.3787878788636364  0.8103706999999999  1.0000
  In  In298     1.0  0.09210526328947367  0.3712121211363637  0.1896293  1.0000
  Se  Se445     1.0  0.07894736828947367  0.3787878788636364  0.32365471999999995  1.0000
  Se  Se446     1.0  0.09210526328947367  0.3712121211363637  0.6763452799999999  1.0000
  Se  Se447     1.0  0.07894736842105261  0.36363636363636365  0.0  1.0000
  In  In299     1.0  0.07894736855263157  0.3939393938636364  0.1896293  1.0000
  Se  Se448     1.0  0.07894736855263157  0.3939393938636364  0.6763452799999999  1.0000
  In  In300     1.0  0.09210526302631578  0.40151515159090917  0.8103706999999999  1.0000
  Se  Se449     1.0  0.09210526302631578  0.40151515159090917  0.32365471999999995  1.0000
  Se  Se450     1.0  0.09210526315789473  0.3863636363636364  0.0  1.0000
  In  In301     1.0  0.07894736828947367  0.4242424243181818  0.8103706999999999  1.0000
  In  In302     1.0  0.09210526328947367  0.4166666665909091  0.1896293  1.0000
  Se  Se451     1.0  0.07894736828947367  0.4242424243181818  0.32365471999999995  1.0000
  Se  Se452     1.0  0.09210526328947367  0.4166666665909091  0.6763452799999999  1.0000
  Se  Se453     1.0  0.07894736842105261  0.4090909090909091  0.0  1.0000
  In  In303     1.0  0.07894736855263157  0.4393939393181818  0.1896293  1.0000
  Se  Se454     1.0  0.07894736855263157  0.4393939393181818  0.6763452799999999  1.0000
  In  In304     1.0  0.09210526302631578  0.4469696970454546  0.8103706999999999  1.0000
  Se  Se455     1.0  0.09210526302631578  0.4469696970454546  0.32365471999999995  1.0000
  Se  Se456     1.0  0.09210526315789473  0.4318181818181819  0.0  1.0000
  In  In305     1.0  0.07894736828947367  0.4696969697727273  0.8103706999999999  1.0000
  In  In306     1.0  0.09210526328947367  0.46212121204545453  0.1896293  1.0000
  Se  Se457     1.0  0.07894736828947367  0.4696969697727273  0.32365471999999995  1.0000
  Se  Se458     1.0  0.09210526328947367  0.46212121204545453  0.6763452799999999  1.0000
  Se  Se459     1.0  0.07894736842105261  0.4545454545454546  0.0  1.0000
  In  In307     1.0  0.07894736855263157  0.4848484847727273  0.1896293  1.0000
  Se  Se460     1.0  0.07894736855263157  0.4848484847727273  0.6763452799999999  1.0000
  In  In308     1.0  0.09210526302631578  0.49242424250000005  0.8103706999999999  1.0000
  Se  Se461     1.0  0.09210526302631578  0.49242424250000005  0.32365471999999995  1.0000
  Se  Se462     1.0  0.09210526315789473  0.47727272727272735  0.0  1.0000
  In  In309     1.0  0.07894736828947367  0.5151515152272728  0.8103706999999999  1.0000
  In  In310     1.0  0.09210526328947367  0.5075757575  0.1896293  1.0000
  Se  Se463     1.0  0.07894736828947367  0.5151515152272728  0.32365471999999995  1.0000
  Se  Se464     1.0  0.09210526328947367  0.5075757575  0.6763452799999999  1.0000
  Se  Se465     1.0  0.07894736842105261  0.5  0.0  1.0000
  In  In311     1.0  0.07894736855263157  0.5303030302272728  0.1896293  1.0000
  Se  Se466     1.0  0.07894736855263157  0.5303030302272728  0.6763452799999999  1.0000
  In  In312     1.0  0.09210526302631578  0.5378787879545455  0.8103706999999999  1.0000
  Se  Se467     1.0  0.09210526302631578  0.5378787879545455  0.32365471999999995  1.0000
  Se  Se468     1.0  0.09210526315789473  0.5227272727272728  0.0  1.0000
  In  In313     1.0  0.07894736828947367  0.5606060606818183  0.8103706999999999  1.0000
  In  In314     1.0  0.09210526328947367  0.5530303029545455  0.1896293  1.0000
  Se  Se469     1.0  0.07894736828947367  0.5606060606818183  0.32365471999999995  1.0000
  Se  Se470     1.0  0.09210526328947367  0.5530303029545455  0.6763452799999999  1.0000
  Se  Se471     1.0  0.07894736842105261  0.5454545454545455  0.0  1.0000
  In  In315     1.0  0.07894736855263157  0.5757575756818183  0.1896293  1.0000
  Se  Se472     1.0  0.07894736855263157  0.5757575756818183  0.6763452799999999  1.0000
  In  In316     1.0  0.09210526302631578  0.583333333409091  0.8103706999999999  1.0000
  Se  Se473     1.0  0.09210526302631578  0.583333333409091  0.32365471999999995  1.0000
  Se  Se474     1.0  0.09210526315789473  0.5681818181818183  0.0  1.0000
  In  In317     1.0  0.07894736828947367  0.6060606061363637  0.8103706999999999  1.0000
  In  In318     1.0  0.09210526328947367  0.598484848409091  0.1896293  1.0000
  Se  Se475     1.0  0.07894736828947367  0.6060606061363637  0.32365471999999995  1.0000
  Se  Se476     1.0  0.09210526328947367  0.598484848409091  0.6763452799999999  1.0000
  Se  Se477     1.0  0.07894736842105261  0.590909090909091  0.0  1.0000
  In  In319     1.0  0.07894736855263157  0.6212121211363637  0.1896293  1.0000
  Se  Se478     1.0  0.07894736855263157  0.6212121211363637  0.6763452799999999  1.0000
  In  In320     1.0  0.09210526302631578  0.6287878788636365  0.8103706999999999  1.0000
  Se  Se479     1.0  0.09210526302631578  0.6287878788636365  0.32365471999999995  1.0000
  Se  Se480     1.0  0.09210526315789473  0.6136363636363638  0.0  1.0000
  In  In321     1.0  0.07894736828947367  0.6515151515909091  0.8103706999999999  1.0000
  In  In322     1.0  0.09210526328947367  0.6439393938636364  0.1896293  1.0000
  Se  Se481     1.0  0.07894736828947367  0.6515151515909091  0.32365471999999995  1.0000
  Se  Se482     1.0  0.09210526328947367  0.6439393938636364  0.6763452799999999  1.0000
  Se  Se483     1.0  0.07894736842105261  0.6363636363636365  0.0  1.0000
  In  In323     1.0  0.07894736855263157  0.6666666665909092  0.1896293  1.0000
  Se  Se484     1.0  0.07894736855263157  0.6666666665909092  0.6763452799999999  1.0000
  In  In324     1.0  0.09210526302631578  0.6742424243181819  0.8103706999999999  1.0000
  Se  Se485     1.0  0.09210526302631578  0.6742424243181819  0.32365471999999995  1.0000
  Se  Se486     1.0  0.09210526315789473  0.6590909090909092  0.0  1.0000
  In  In325     1.0  0.07894736828947367  0.6969696970454546  0.8103706999999999  1.0000
  In  In326     1.0  0.09210526328947367  0.6893939393181818  0.1896293  1.0000
  Se  Se487     1.0  0.07894736828947367  0.6969696970454546  0.32365471999999995  1.0000
  Se  Se488     1.0  0.09210526328947367  0.6893939393181818  0.6763452799999999  1.0000
  Se  Se489     1.0  0.07894736842105261  0.6818181818181819  0.0  1.0000
  In  In327     1.0  0.07894736855263157  0.7121212120454546  0.1896293  1.0000
  Se  Se490     1.0  0.07894736855263157  0.7121212120454546  0.6763452799999999  1.0000
  In  In328     1.0  0.09210526302631578  0.7196969697727273  0.8103706999999999  1.0000
  Se  Se491     1.0  0.09210526302631578  0.7196969697727273  0.32365471999999995  1.0000
  Se  Se492     1.0  0.09210526315789473  0.7045454545454547  0.0  1.0000
  In  In329     1.0  0.07894736828947367  0.7424242425  0.8103706999999999  1.0000
  In  In330     1.0  0.09210526328947367  0.7348484847727274  0.1896293  1.0000
  Se  Se493     1.0  0.07894736828947367  0.7424242425  0.32365471999999995  1.0000
  Se  Se494     1.0  0.09210526328947367  0.7348484847727274  0.6763452799999999  1.0000
  Se  Se495     1.0  0.07894736842105261  0.7272727272727273  0.0  1.0000
  In  In331     1.0  0.07894736855263157  0.7575757575000001  0.1896293  1.0000
  Se  Se496     1.0  0.07894736855263157  0.7575757575000001  0.6763452799999999  1.0000
  In  In332     1.0  0.09210526302631578  0.7651515152272729  0.8103706999999999  1.0000
  Se  Se497     1.0  0.09210526302631578  0.7651515152272729  0.32365471999999995  1.0000
  Se  Se498     1.0  0.09210526315789473  0.7500000000000001  0.0  1.0000
  In  In333     1.0  0.07894736828947367  0.7878787879545455  0.8103706999999999  1.0000
  In  In334     1.0  0.09210526328947367  0.7803030302272728  0.1896293  1.0000
  Se  Se499     1.0  0.07894736828947367  0.7878787879545455  0.32365471999999995  1.0000
  Se  Se500     1.0  0.09210526328947367  0.7803030302272728  0.6763452799999999  1.0000
  Se  Se501     1.0  0.07894736842105261  0.7727272727272728  0.0  1.0000
  In  In335     1.0  0.07894736855263157  0.8030303029545455  0.1896293  1.0000
  Se  Se502     1.0  0.07894736855263157  0.8030303029545455  0.6763452799999999  1.0000
  In  In336     1.0  0.09210526302631578  0.8106060606818183  0.8103706999999999  1.0000
  Se  Se503     1.0  0.09210526302631578  0.8106060606818183  0.32365471999999995  1.0000
  Se  Se504     1.0  0.09210526315789473  0.7954545454545455  0.0  1.0000
  In  In337     1.0  0.07894736828947367  0.833333333409091  0.8103706999999999  1.0000
  In  In338     1.0  0.09210526328947367  0.8257575756818182  0.1896293  1.0000
  Se  Se505     1.0  0.07894736828947367  0.833333333409091  0.32365471999999995  1.0000
  Se  Se506     1.0  0.09210526328947367  0.8257575756818182  0.6763452799999999  1.0000
  Se  Se507     1.0  0.07894736842105261  0.8181818181818182  0.0  1.0000
  In  In339     1.0  0.07894736855263157  0.848484848409091  0.1896293  1.0000
  Se  Se508     1.0  0.07894736855263157  0.848484848409091  0.6763452799999999  1.0000
  In  In340     1.0  0.09210526302631578  0.8560606061363636  0.8103706999999999  1.0000
  Se  Se509     1.0  0.09210526302631578  0.8560606061363636  0.32365471999999995  1.0000
  Se  Se510     1.0  0.09210526315789473  0.840909090909091  0.0  1.0000
  In  In341     1.0  0.07894736828947367  0.8787878788636366  0.8103706999999999  1.0000
  In  In342     1.0  0.09210526328947367  0.8712121211363637  0.1896293  1.0000
  Se  Se511     1.0  0.07894736828947367  0.8787878788636366  0.32365471999999995  1.0000
  Se  Se512     1.0  0.09210526328947367  0.8712121211363637  0.6763452799999999  1.0000
  Se  Se513     1.0  0.07894736842105261  0.8636363636363638  0.0  1.0000
  In  In343     1.0  0.07894736855263157  0.8939393938636365  0.1896293  1.0000
  Se  Se514     1.0  0.07894736855263157  0.8939393938636365  0.6763452799999999  1.0000
  In  In344     1.0  0.09210526302631578  0.9015151515909092  0.8103706999999999  1.0000
  Se  Se515     1.0  0.09210526302631578  0.9015151515909092  0.32365471999999995  1.0000
  Se  Se516     1.0  0.09210526315789473  0.8863636363636366  0.0  1.0000
  In  In345     1.0  0.07894736828947367  0.9242424243181819  0.8103706999999999  1.0000
  In  In346     1.0  0.09210526328947367  0.9166666665909091  0.1896293  1.0000
  Se  Se517     1.0  0.07894736828947367  0.9242424243181819  0.32365471999999995  1.0000
  Se  Se518     1.0  0.09210526328947367  0.9166666665909091  0.6763452799999999  1.0000
  Se  Se519     1.0  0.07894736842105261  0.9090909090909092  0.0  1.0000
  In  In347     1.0  0.07894736855263157  0.9393939393181818  0.1896293  1.0000
  Se  Se520     1.0  0.07894736855263157  0.9393939393181818  0.6763452799999999  1.0000
  In  In348     1.0  0.09210526302631578  0.9469696970454545  0.8103706999999999  1.0000
  Se  Se521     1.0  0.09210526302631578  0.9469696970454545  0.32365471999999995  1.0000
  Se  Se522     1.0  0.09210526315789473  0.9318181818181819  0.0  1.0000
  In  In349     1.0  0.07894736828947367  0.9696969697727275  0.8103706999999999  1.0000
  In  In350     1.0  0.09210526328947367  0.9621212120454546  0.1896293  1.0000
  Se  Se523     1.0  0.07894736828947367  0.9696969697727275  0.32365471999999995  1.0000
  Se  Se524     1.0  0.09210526328947367  0.9621212120454546  0.6763452799999999  1.0000
  Se  Se525     1.0  0.07894736842105261  0.9545454545454547  0.0  1.0000
  In  In351     1.0  0.07894736855263157  0.9848484847727275  0.1896293  1.0000
  Se  Se526     1.0  0.07894736855263157  0.9848484847727275  0.6763452799999999  1.0000
  In  In352     1.0  0.09210526302631578  0.9924242425  0.8103706999999999  1.0000
  Se  Se527     1.0  0.09210526302631578  0.9924242425  0.32365471999999995  1.0000
  Se  Se528     1.0  0.09210526315789473  0.9772727272727274  0.0  1.0000
  In  In353     1.0  0.10526315776315788  0.01515151522727273  0.8103706999999999  1.0000
  In  In354     1.0  0.11842105276315787  0.0075757575  0.1896293  1.0000
  Se  Se529     1.0  0.10526315776315788  0.01515151522727273  0.32365471999999995  1.0000
  Se  Se530     1.0  0.11842105276315787  0.0075757575  0.6763452799999999  1.0000
  Se  Se531     1.0  0.10526315789473684  0.0  0.0  1.0000
  In  In355     1.0  0.10526315802631578  0.030303030227272734  0.1896293  1.0000
  Se  Se532     1.0  0.10526315802631578  0.030303030227272734  0.6763452799999999  1.0000
  In  In356     1.0  0.11842105249999998  0.03787878795454546  0.8103706999999999  1.0000
  Se  Se533     1.0  0.11842105249999998  0.03787878795454546  0.32365471999999995  1.0000
  Se  Se534     1.0  0.11842105263157893  0.022727272727272728  0.0  1.0000
  In  In357     1.0  0.10526315776315788  0.06060606068181818  0.8103706999999999  1.0000
  In  In358     1.0  0.11842105276315787  0.05303030295454546  0.1896293  1.0000
  Se  Se535     1.0  0.10526315776315788  0.06060606068181818  0.32365471999999995  1.0000
  Se  Se536     1.0  0.11842105276315787  0.05303030295454546  0.6763452799999999  1.0000
  Se  Se537     1.0  0.10526315789473684  0.045454545454545456  0.0  1.0000
  In  In359     1.0  0.10526315802631578  0.07575757568181819  0.1896293  1.0000
  Se  Se538     1.0  0.10526315802631578  0.07575757568181819  0.6763452799999999  1.0000
  In  In360     1.0  0.11842105249999998  0.08333333340909092  0.8103706999999999  1.0000
  Se  Se539     1.0  0.11842105249999998  0.08333333340909092  0.32365471999999995  1.0000
  Se  Se540     1.0  0.11842105263157893  0.06818181818181819  0.0  1.0000
  In  In361     1.0  0.10526315776315788  0.10606060613636366  0.8103706999999999  1.0000
  In  In362     1.0  0.11842105276315787  0.09848484840909091  0.1896293  1.0000
  Se  Se541     1.0  0.10526315776315788  0.10606060613636366  0.32365471999999995  1.0000
  Se  Se542     1.0  0.11842105276315787  0.09848484840909091  0.6763452799999999  1.0000
  Se  Se543     1.0  0.10526315789473684  0.09090909090909091  0.0  1.0000
  In  In363     1.0  0.10526315802631578  0.12121212113636365  0.1896293  1.0000
  Se  Se544     1.0  0.10526315802631578  0.12121212113636365  0.6763452799999999  1.0000
  In  In364     1.0  0.11842105249999998  0.12878787886363638  0.8103706999999999  1.0000
  Se  Se545     1.0  0.11842105249999998  0.12878787886363638  0.32365471999999995  1.0000
  Se  Se546     1.0  0.11842105263157893  0.11363636363636365  0.0  1.0000
  In  In365     1.0  0.10526315776315788  0.15151515159090911  0.8103706999999999  1.0000
  In  In366     1.0  0.11842105276315787  0.1439393938636364  0.1896293  1.0000
  Se  Se547     1.0  0.10526315776315788  0.15151515159090911  0.32365471999999995  1.0000
  Se  Se548     1.0  0.11842105276315787  0.1439393938636364  0.6763452799999999  1.0000
  Se  Se549     1.0  0.10526315789473684  0.13636363636363638  0.0  1.0000
  In  In367     1.0  0.10526315802631578  0.16666666659090912  0.1896293  1.0000
  Se  Se550     1.0  0.10526315802631578  0.16666666659090912  0.6763452799999999  1.0000
  In  In368     1.0  0.11842105249999998  0.17424242431818185  0.8103706999999999  1.0000
  Se  Se551     1.0  0.11842105249999998  0.17424242431818185  0.32365471999999995  1.0000
  Se  Se552     1.0  0.11842105263157893  0.15909090909090912  0.0  1.0000
  In  In369     1.0  0.10526315776315788  0.19696969704545458  0.8103706999999999  1.0000
  In  In370     1.0  0.11842105276315787  0.18939393931818185  0.1896293  1.0000
  Se  Se553     1.0  0.10526315776315788  0.19696969704545458  0.32365471999999995  1.0000
  Se  Se554     1.0  0.11842105276315787  0.18939393931818185  0.6763452799999999  1.0000
  Se  Se555     1.0  0.10526315789473684  0.18181818181818182  0.0  1.0000
  In  In371     1.0  0.10526315802631578  0.21212121204545456  0.1896293  1.0000
  Se  Se556     1.0  0.10526315802631578  0.21212121204545456  0.6763452799999999  1.0000
  In  In372     1.0  0.11842105249999998  0.21969696977272726  0.8103706999999999  1.0000
  Se  Se557     1.0  0.11842105249999998  0.21969696977272726  0.32365471999999995  1.0000
  Se  Se558     1.0  0.11842105263157893  0.20454545454545456  0.0  1.0000
  In  In373     1.0  0.10526315776315788  0.2424242425  0.8103706999999999  1.0000
  In  In374     1.0  0.11842105276315787  0.2348484847727273  0.1896293  1.0000
  Se  Se559     1.0  0.10526315776315788  0.2424242425  0.32365471999999995  1.0000
  Se  Se560     1.0  0.11842105276315787  0.2348484847727273  0.6763452799999999  1.0000
  Se  Se561     1.0  0.10526315789473684  0.2272727272727273  0.0  1.0000
  In  In375     1.0  0.10526315802631578  0.2575757575  0.1896293  1.0000
  Se  Se562     1.0  0.10526315802631578  0.2575757575  0.6763452799999999  1.0000
  In  In376     1.0  0.11842105249999998  0.2651515152272727  0.8103706999999999  1.0000
  Se  Se563     1.0  0.11842105249999998  0.2651515152272727  0.32365471999999995  1.0000
  Se  Se564     1.0  0.11842105263157893  0.25  0.0  1.0000
  In  In377     1.0  0.10526315776315788  0.28787878795454547  0.8103706999999999  1.0000
  In  In378     1.0  0.11842105276315787  0.28030303022727276  0.1896293  1.0000
  Se  Se565     1.0  0.10526315776315788  0.28787878795454547  0.32365471999999995  1.0000
  Se  Se566     1.0  0.11842105276315787  0.28030303022727276  0.6763452799999999  1.0000
  Se  Se567     1.0  0.10526315789473684  0.27272727272727276  0.0  1.0000
  In  In379     1.0  0.10526315802631578  0.3030303029545455  0.1896293  1.0000
  Se  Se568     1.0  0.10526315802631578  0.3030303029545455  0.6763452799999999  1.0000
  In  In380     1.0  0.11842105249999998  0.3106060606818183  0.8103706999999999  1.0000
  Se  Se569     1.0  0.11842105249999998  0.3106060606818183  0.32365471999999995  1.0000
  Se  Se570     1.0  0.11842105263157893  0.2954545454545455  0.0  1.0000
  In  In381     1.0  0.10526315776315788  0.33333333340909094  0.8103706999999999  1.0000
  In  In382     1.0  0.11842105276315787  0.32575757568181823  0.1896293  1.0000
  Se  Se571     1.0  0.10526315776315788  0.33333333340909094  0.32365471999999995  1.0000
  Se  Se572     1.0  0.11842105276315787  0.32575757568181823  0.6763452799999999  1.0000
  Se  Se573     1.0  0.10526315789473684  0.31818181818181823  0.0  1.0000
  In  In383     1.0  0.10526315802631578  0.34848484840909094  0.1896293  1.0000
  Se  Se574     1.0  0.10526315802631578  0.34848484840909094  0.6763452799999999  1.0000
  In  In384     1.0  0.11842105249999998  0.3560606061363637  0.8103706999999999  1.0000
  Se  Se575     1.0  0.11842105249999998  0.3560606061363637  0.32365471999999995  1.0000
  Se  Se576     1.0  0.11842105263157893  0.34090909090909094  0.0  1.0000
  In  In385     1.0  0.10526315776315788  0.3787878788636364  0.8103706999999999  1.0000
  In  In386     1.0  0.11842105276315787  0.3712121211363637  0.1896293  1.0000
  Se  Se577     1.0  0.10526315776315788  0.3787878788636364  0.32365471999999995  1.0000
  Se  Se578     1.0  0.11842105276315787  0.3712121211363637  0.6763452799999999  1.0000
  Se  Se579     1.0  0.10526315789473684  0.36363636363636365  0.0  1.0000
  In  In387     1.0  0.10526315802631578  0.3939393938636364  0.1896293  1.0000
  Se  Se580     1.0  0.10526315802631578  0.3939393938636364  0.6763452799999999  1.0000
  In  In388     1.0  0.11842105249999998  0.40151515159090917  0.8103706999999999  1.0000
  Se  Se581     1.0  0.11842105249999998  0.40151515159090917  0.32365471999999995  1.0000
  Se  Se582     1.0  0.11842105263157893  0.3863636363636364  0.0  1.0000
  In  In389     1.0  0.10526315776315788  0.4242424243181818  0.8103706999999999  1.0000
  In  In390     1.0  0.11842105276315787  0.4166666665909091  0.1896293  1.0000
  Se  Se583     1.0  0.10526315776315788  0.4242424243181818  0.32365471999999995  1.0000
  Se  Se584     1.0  0.11842105276315787  0.4166666665909091  0.6763452799999999  1.0000
  Se  Se585     1.0  0.10526315789473684  0.4090909090909091  0.0  1.0000
  In  In391     1.0  0.10526315802631578  0.4393939393181818  0.1896293  1.0000
  Se  Se586     1.0  0.10526315802631578  0.4393939393181818  0.6763452799999999  1.0000
  In  In392     1.0  0.11842105249999998  0.4469696970454546  0.8103706999999999  1.0000
  Se  Se587     1.0  0.11842105249999998  0.4469696970454546  0.32365471999999995  1.0000
  Se  Se588     1.0  0.11842105263157893  0.4318181818181819  0.0  1.0000
  In  In393     1.0  0.10526315776315788  0.4696969697727273  0.8103706999999999  1.0000
  In  In394     1.0  0.11842105276315787  0.46212121204545453  0.1896293  1.0000
  Se  Se589     1.0  0.10526315776315788  0.4696969697727273  0.32365471999999995  1.0000
  Se  Se590     1.0  0.11842105276315787  0.46212121204545453  0.6763452799999999  1.0000
  Se  Se591     1.0  0.10526315789473684  0.4545454545454546  0.0  1.0000
  In  In395     1.0  0.10526315802631578  0.4848484847727273  0.1896293  1.0000
  Se  Se592     1.0  0.10526315802631578  0.4848484847727273  0.6763452799999999  1.0000
  In  In396     1.0  0.11842105249999998  0.49242424250000005  0.8103706999999999  1.0000
  Se  Se593     1.0  0.11842105249999998  0.49242424250000005  0.32365471999999995  1.0000
  Se  Se594     1.0  0.11842105263157893  0.47727272727272735  0.0  1.0000
  In  In397     1.0  0.10526315776315788  0.5151515152272728  0.8103706999999999  1.0000
  In  In398     1.0  0.11842105276315787  0.5075757575  0.1896293  1.0000
  Se  Se595     1.0  0.10526315776315788  0.5151515152272728  0.32365471999999995  1.0000
  Se  Se596     1.0  0.11842105276315787  0.5075757575  0.6763452799999999  1.0000
  Se  Se597     1.0  0.10526315789473684  0.5  0.0  1.0000
  In  In399     1.0  0.10526315802631578  0.5303030302272728  0.1896293  1.0000
  Se  Se598     1.0  0.10526315802631578  0.5303030302272728  0.6763452799999999  1.0000
  In  In400     1.0  0.11842105249999998  0.5378787879545455  0.8103706999999999  1.0000
  Se  Se599     1.0  0.11842105249999998  0.5378787879545455  0.32365471999999995  1.0000
  Se  Se600     1.0  0.11842105263157893  0.5227272727272728  0.0  1.0000
  In  In401     1.0  0.10526315776315788  0.5606060606818183  0.8103706999999999  1.0000
  In  In402     1.0  0.11842105276315787  0.5530303029545455  0.1896293  1.0000
  Se  Se601     1.0  0.10526315776315788  0.5606060606818183  0.32365471999999995  1.0000
  Se  Se602     1.0  0.11842105276315787  0.5530303029545455  0.6763452799999999  1.0000
  Se  Se603     1.0  0.10526315789473684  0.5454545454545455  0.0  1.0000
  In  In403     1.0  0.10526315802631578  0.5757575756818183  0.1896293  1.0000
  Se  Se604     1.0  0.10526315802631578  0.5757575756818183  0.6763452799999999  1.0000
  In  In404     1.0  0.11842105249999998  0.583333333409091  0.8103706999999999  1.0000
  Se  Se605     1.0  0.11842105249999998  0.583333333409091  0.32365471999999995  1.0000
  Se  Se606     1.0  0.11842105263157893  0.5681818181818183  0.0  1.0000
  In  In405     1.0  0.10526315776315788  0.6060606061363637  0.8103706999999999  1.0000
  In  In406     1.0  0.11842105276315787  0.598484848409091  0.1896293  1.0000
  Se  Se607     1.0  0.10526315776315788  0.6060606061363637  0.32365471999999995  1.0000
  Se  Se608     1.0  0.11842105276315787  0.598484848409091  0.6763452799999999  1.0000
  Se  Se609     1.0  0.10526315789473684  0.590909090909091  0.0  1.0000
  In  In407     1.0  0.10526315802631578  0.6212121211363637  0.1896293  1.0000
  Se  Se610     1.0  0.10526315802631578  0.6212121211363637  0.6763452799999999  1.0000
  In  In408     1.0  0.11842105249999998  0.6287878788636365  0.8103706999999999  1.0000
  Se  Se611     1.0  0.11842105249999998  0.6287878788636365  0.32365471999999995  1.0000
  Se  Se612     1.0  0.11842105263157893  0.6136363636363638  0.0  1.0000
  In  In409     1.0  0.10526315776315788  0.6515151515909091  0.8103706999999999  1.0000
  In  In410     1.0  0.11842105276315787  0.6439393938636364  0.1896293  1.0000
  Se  Se613     1.0  0.10526315776315788  0.6515151515909091  0.32365471999999995  1.0000
  Se  Se614     1.0  0.11842105276315787  0.6439393938636364  0.6763452799999999  1.0000
  Se  Se615     1.0  0.10526315789473684  0.6363636363636365  0.0  1.0000
  In  In411     1.0  0.10526315802631578  0.6666666665909092  0.1896293  1.0000
  Se  Se616     1.0  0.10526315802631578  0.6666666665909092  0.6763452799999999  1.0000
  In  In412     1.0  0.11842105249999998  0.6742424243181819  0.8103706999999999  1.0000
  Se  Se617     1.0  0.11842105249999998  0.6742424243181819  0.32365471999999995  1.0000
  Se  Se618     1.0  0.11842105263157893  0.6590909090909092  0.0  1.0000
  In  In413     1.0  0.10526315776315788  0.6969696970454546  0.8103706999999999  1.0000
  In  In414     1.0  0.11842105276315787  0.6893939393181818  0.1896293  1.0000
  Se  Se619     1.0  0.10526315776315788  0.6969696970454546  0.32365471999999995  1.0000
  Se  Se620     1.0  0.11842105276315787  0.6893939393181818  0.6763452799999999  1.0000
  Se  Se621     1.0  0.10526315789473684  0.6818181818181819  0.0  1.0000
  In  In415     1.0  0.10526315802631578  0.7121212120454546  0.1896293  1.0000
  Se  Se622     1.0  0.10526315802631578  0.7121212120454546  0.6763452799999999  1.0000
  In  In416     1.0  0.11842105249999998  0.7196969697727273  0.8103706999999999  1.0000
  Se  Se623     1.0  0.11842105249999998  0.7196969697727273  0.32365471999999995  1.0000
  Se  Se624     1.0  0.11842105263157893  0.7045454545454547  0.0  1.0000
  In  In417     1.0  0.10526315776315788  0.7424242425  0.8103706999999999  1.0000
  In  In418     1.0  0.11842105276315787  0.7348484847727274  0.1896293  1.0000
  Se  Se625     1.0  0.10526315776315788  0.7424242425  0.32365471999999995  1.0000
  Se  Se626     1.0  0.11842105276315787  0.7348484847727274  0.6763452799999999  1.0000
  Se  Se627     1.0  0.10526315789473684  0.7272727272727273  0.0  1.0000
  In  In419     1.0  0.10526315802631578  0.7575757575000001  0.1896293  1.0000
  Se  Se628     1.0  0.10526315802631578  0.7575757575000001  0.6763452799999999  1.0000
  In  In420     1.0  0.11842105249999998  0.7651515152272729  0.8103706999999999  1.0000
  Se  Se629     1.0  0.11842105249999998  0.7651515152272729  0.32365471999999995  1.0000
  Se  Se630     1.0  0.11842105263157893  0.7500000000000001  0.0  1.0000
  In  In421     1.0  0.10526315776315788  0.7878787879545455  0.8103706999999999  1.0000
  In  In422     1.0  0.11842105276315787  0.7803030302272728  0.1896293  1.0000
  Se  Se631     1.0  0.10526315776315788  0.7878787879545455  0.32365471999999995  1.0000
  Se  Se632     1.0  0.11842105276315787  0.7803030302272728  0.6763452799999999  1.0000
  Se  Se633     1.0  0.10526315789473684  0.7727272727272728  0.0  1.0000
  In  In423     1.0  0.10526315802631578  0.8030303029545455  0.1896293  1.0000
  Se  Se634     1.0  0.10526315802631578  0.8030303029545455  0.6763452799999999  1.0000
  In  In424     1.0  0.11842105249999998  0.8106060606818183  0.8103706999999999  1.0000
  Se  Se635     1.0  0.11842105249999998  0.8106060606818183  0.32365471999999995  1.0000
  Se  Se636     1.0  0.11842105263157893  0.7954545454545455  0.0  1.0000
  In  In425     1.0  0.10526315776315788  0.833333333409091  0.8103706999999999  1.0000
  In  In426     1.0  0.11842105276315787  0.8257575756818182  0.1896293  1.0000
  Se  Se637     1.0  0.10526315776315788  0.833333333409091  0.32365471999999995  1.0000
  Se  Se638     1.0  0.11842105276315787  0.8257575756818182  0.6763452799999999  1.0000
  Se  Se639     1.0  0.10526315789473684  0.8181818181818182  0.0  1.0000
  In  In427     1.0  0.10526315802631578  0.848484848409091  0.1896293  1.0000
  Se  Se640     1.0  0.10526315802631578  0.848484848409091  0.6763452799999999  1.0000
  In  In428     1.0  0.11842105249999998  0.8560606061363636  0.8103706999999999  1.0000
  Se  Se641     1.0  0.11842105249999998  0.8560606061363636  0.32365471999999995  1.0000
  Se  Se642     1.0  0.11842105263157893  0.840909090909091  0.0  1.0000
  In  In429     1.0  0.10526315776315788  0.8787878788636366  0.8103706999999999  1.0000
  In  In430     1.0  0.11842105276315787  0.8712121211363637  0.1896293  1.0000
  Se  Se643     1.0  0.10526315776315788  0.8787878788636366  0.32365471999999995  1.0000
  Se  Se644     1.0  0.11842105276315787  0.8712121211363637  0.6763452799999999  1.0000
  Se  Se645     1.0  0.10526315789473684  0.8636363636363638  0.0  1.0000
  In  In431     1.0  0.10526315802631578  0.8939393938636365  0.1896293  1.0000
  Se  Se646     1.0  0.10526315802631578  0.8939393938636365  0.6763452799999999  1.0000
  In  In432     1.0  0.11842105249999998  0.9015151515909092  0.8103706999999999  1.0000
  Se  Se647     1.0  0.11842105249999998  0.9015151515909092  0.32365471999999995  1.0000
  Se  Se648     1.0  0.11842105263157893  0.8863636363636366  0.0  1.0000
  In  In433     1.0  0.10526315776315788  0.9242424243181819  0.8103706999999999  1.0000
  In  In434     1.0  0.11842105276315787  0.9166666665909091  0.1896293  1.0000
  Se  Se649     1.0  0.10526315776315788  0.9242424243181819  0.32365471999999995  1.0000
  Se  Se650     1.0  0.11842105276315787  0.9166666665909091  0.6763452799999999  1.0000
  Se  Se651     1.0  0.10526315789473684  0.9090909090909092  0.0  1.0000
  In  In435     1.0  0.10526315802631578  0.9393939393181818  0.1896293  1.0000
  Se  Se652     1.0  0.10526315802631578  0.9393939393181818  0.6763452799999999  1.0000
  In  In436     1.0  0.11842105249999998  0.9469696970454545  0.8103706999999999  1.0000
  Se  Se653     1.0  0.11842105249999998  0.9469696970454545  0.32365471999999995  1.0000
  Se  Se654     1.0  0.11842105263157893  0.9318181818181819  0.0  1.0000
  In  In437     1.0  0.10526315776315788  0.9696969697727275  0.8103706999999999  1.0000
  In  In438     1.0  0.11842105276315787  0.9621212120454546  0.1896293  1.0000
  Se  Se655     1.0  0.10526315776315788  0.9696969697727275  0.32365471999999995  1.0000
  Se  Se656     1.0  0.11842105276315787  0.9621212120454546  0.6763452799999999  1.0000
  Se  Se657     1.0  0.10526315789473684  0.9545454545454547  0.0  1.0000
  In  In439     1.0  0.10526315802631578  0.9848484847727275  0.1896293  1.0000
  Se  Se658     1.0  0.10526315802631578  0.9848484847727275  0.6763452799999999  1.0000
  In  In440     1.0  0.11842105249999998  0.9924242425  0.8103706999999999  1.0000
  Se  Se659     1.0  0.11842105249999998  0.9924242425  0.32365471999999995  1.0000
  Se  Se660     1.0  0.11842105263157893  0.9772727272727274  0.0  1.0000
  In  In441     1.0  0.1315789472368421  0.01515151522727273  0.8103706999999999  1.0000
  In  In442     1.0  0.14473684223684208  0.0075757575  0.1896293  1.0000
  Se  Se661     1.0  0.1315789472368421  0.01515151522727273  0.32365471999999995  1.0000
  Se  Se662     1.0  0.14473684223684208  0.0075757575  0.6763452799999999  1.0000
  Se  Se663     1.0  0.13157894736842105  0.0  0.0  1.0000
  In  In443     1.0  0.1315789475  0.030303030227272734  0.1896293  1.0000
  Se  Se664     1.0  0.1315789475  0.030303030227272734  0.6763452799999999  1.0000
  In  In444     1.0  0.1447368419736842  0.03787878795454546  0.8103706999999999  1.0000
  Se  Se665     1.0  0.1447368419736842  0.03787878795454546  0.32365471999999995  1.0000
  Se  Se666     1.0  0.14473684210526314  0.022727272727272728  0.0  1.0000
  In  In445     1.0  0.1315789472368421  0.06060606068181818  0.8103706999999999  1.0000
  In  In446     1.0  0.14473684223684208  0.05303030295454546  0.1896293  1.0000
  Se  Se667     1.0  0.1315789472368421  0.06060606068181818  0.32365471999999995  1.0000
  Se  Se668     1.0  0.14473684223684208  0.05303030295454546  0.6763452799999999  1.0000
  Se  Se669     1.0  0.13157894736842105  0.045454545454545456  0.0  1.0000
  In  In447     1.0  0.1315789475  0.07575757568181819  0.1896293  1.0000
  Se  Se670     1.0  0.1315789475  0.07575757568181819  0.6763452799999999  1.0000
  In  In448     1.0  0.1447368419736842  0.08333333340909092  0.8103706999999999  1.0000
  Se  Se671     1.0  0.1447368419736842  0.08333333340909092  0.32365471999999995  1.0000
  Se  Se672     1.0  0.14473684210526314  0.06818181818181819  0.0  1.0000
  In  In449     1.0  0.1315789472368421  0.10606060613636366  0.8103706999999999  1.0000
  In  In450     1.0  0.14473684223684208  0.09848484840909091  0.1896293  1.0000
  Se  Se673     1.0  0.1315789472368421  0.10606060613636366  0.32365471999999995  1.0000
  Se  Se674     1.0  0.14473684223684208  0.09848484840909091  0.6763452799999999  1.0000
  Se  Se675     1.0  0.13157894736842105  0.09090909090909091  0.0  1.0000
  In  In451     1.0  0.1315789475  0.12121212113636365  0.1896293  1.0000
  Se  Se676     1.0  0.1315789475  0.12121212113636365  0.6763452799999999  1.0000
  In  In452     1.0  0.1447368419736842  0.12878787886363638  0.8103706999999999  1.0000
  Se  Se677     1.0  0.1447368419736842  0.12878787886363638  0.32365471999999995  1.0000
  Se  Se678     1.0  0.14473684210526314  0.11363636363636365  0.0  1.0000
  In  In453     1.0  0.1315789472368421  0.15151515159090911  0.8103706999999999  1.0000
  In  In454     1.0  0.14473684223684208  0.1439393938636364  0.1896293  1.0000
  Se  Se679     1.0  0.1315789472368421  0.15151515159090911  0.32365471999999995  1.0000
  Se  Se680     1.0  0.14473684223684208  0.1439393938636364  0.6763452799999999  1.0000
  Se  Se681     1.0  0.13157894736842105  0.13636363636363638  0.0  1.0000
  In  In455     1.0  0.1315789475  0.16666666659090912  0.1896293  1.0000
  Se  Se682     1.0  0.1315789475  0.16666666659090912  0.6763452799999999  1.0000
  In  In456     1.0  0.1447368419736842  0.17424242431818185  0.8103706999999999  1.0000
  Se  Se683     1.0  0.1447368419736842  0.17424242431818185  0.32365471999999995  1.0000
  Se  Se684     1.0  0.14473684210526314  0.15909090909090912  0.0  1.0000
  In  In457     1.0  0.1315789472368421  0.19696969704545458  0.8103706999999999  1.0000
  In  In458     1.0  0.14473684223684208  0.18939393931818185  0.1896293  1.0000
  Se  Se685     1.0  0.1315789472368421  0.19696969704545458  0.32365471999999995  1.0000
  Se  Se686     1.0  0.14473684223684208  0.18939393931818185  0.6763452799999999  1.0000
  Se  Se687     1.0  0.13157894736842105  0.18181818181818182  0.0  1.0000
  In  In459     1.0  0.1315789475  0.21212121204545456  0.1896293  1.0000
  Se  Se688     1.0  0.1315789475  0.21212121204545456  0.6763452799999999  1.0000
  In  In460     1.0  0.1447368419736842  0.21969696977272726  0.8103706999999999  1.0000
  Se  Se689     1.0  0.1447368419736842  0.21969696977272726  0.32365471999999995  1.0000
  Se  Se690     1.0  0.14473684210526314  0.20454545454545456  0.0  1.0000
  In  In461     1.0  0.1315789472368421  0.2424242425  0.8103706999999999  1.0000
  In  In462     1.0  0.14473684223684208  0.2348484847727273  0.1896293  1.0000
  Se  Se691     1.0  0.1315789472368421  0.2424242425  0.32365471999999995  1.0000
  Se  Se692     1.0  0.14473684223684208  0.2348484847727273  0.6763452799999999  1.0000
  Se  Se693     1.0  0.13157894736842105  0.2272727272727273  0.0  1.0000
  In  In463     1.0  0.1315789475  0.2575757575  0.1896293  1.0000
  Se  Se694     1.0  0.1315789475  0.2575757575  0.6763452799999999  1.0000
  In  In464     1.0  0.1447368419736842  0.2651515152272727  0.8103706999999999  1.0000
  Se  Se695     1.0  0.1447368419736842  0.2651515152272727  0.32365471999999995  1.0000
  Se  Se696     1.0  0.14473684210526314  0.25  0.0  1.0000
  In  In465     1.0  0.1315789472368421  0.28787878795454547  0.8103706999999999  1.0000
  In  In466     1.0  0.14473684223684208  0.28030303022727276  0.1896293  1.0000
  Se  Se697     1.0  0.1315789472368421  0.28787878795454547  0.32365471999999995  1.0000
  Se  Se698     1.0  0.14473684223684208  0.28030303022727276  0.6763452799999999  1.0000
  Se  Se699     1.0  0.13157894736842105  0.27272727272727276  0.0  1.0000
  In  In467     1.0  0.1315789475  0.3030303029545455  0.1896293  1.0000
  Se  Se700     1.0  0.1315789475  0.3030303029545455  0.6763452799999999  1.0000
  In  In468     1.0  0.1447368419736842  0.3106060606818183  0.8103706999999999  1.0000
  Se  Se701     1.0  0.1447368419736842  0.3106060606818183  0.32365471999999995  1.0000
  Se  Se702     1.0  0.14473684210526314  0.2954545454545455  0.0  1.0000
  In  In469     1.0  0.1315789472368421  0.33333333340909094  0.8103706999999999  1.0000
  In  In470     1.0  0.14473684223684208  0.32575757568181823  0.1896293  1.0000
  Se  Se703     1.0  0.1315789472368421  0.33333333340909094  0.32365471999999995  1.0000
  Se  Se704     1.0  0.14473684223684208  0.32575757568181823  0.6763452799999999  1.0000
  Se  Se705     1.0  0.13157894736842105  0.31818181818181823  0.0  1.0000
  In  In471     1.0  0.1315789475  0.34848484840909094  0.1896293  1.0000
  Se  Se706     1.0  0.1315789475  0.34848484840909094  0.6763452799999999  1.0000
  In  In472     1.0  0.1447368419736842  0.3560606061363637  0.8103706999999999  1.0000
  Se  Se707     1.0  0.1447368419736842  0.3560606061363637  0.32365471999999995  1.0000
  Se  Se708     1.0  0.14473684210526314  0.34090909090909094  0.0  1.0000
  In  In473     1.0  0.1315789472368421  0.3787878788636364  0.8103706999999999  1.0000
  In  In474     1.0  0.14473684223684208  0.3712121211363637  0.1896293  1.0000
  Se  Se709     1.0  0.1315789472368421  0.3787878788636364  0.32365471999999995  1.0000
  Se  Se710     1.0  0.14473684223684208  0.3712121211363637  0.6763452799999999  1.0000
  Se  Se711     1.0  0.13157894736842105  0.36363636363636365  0.0  1.0000
  In  In475     1.0  0.1315789475  0.3939393938636364  0.1896293  1.0000
  Se  Se712     1.0  0.1315789475  0.3939393938636364  0.6763452799999999  1.0000
  In  In476     1.0  0.1447368419736842  0.40151515159090917  0.8103706999999999  1.0000
  Se  Se713     1.0  0.1447368419736842  0.40151515159090917  0.32365471999999995  1.0000
  Se  Se714     1.0  0.14473684210526314  0.3863636363636364  0.0  1.0000
  In  In477     1.0  0.1315789472368421  0.4242424243181818  0.8103706999999999  1.0000
  In  In478     1.0  0.14473684223684208  0.4166666665909091  0.1896293  1.0000
  Se  Se715     1.0  0.1315789472368421  0.4242424243181818  0.32365471999999995  1.0000
  Se  Se716     1.0  0.14473684223684208  0.4166666665909091  0.6763452799999999  1.0000
  Se  Se717     1.0  0.13157894736842105  0.4090909090909091  0.0  1.0000
  In  In479     1.0  0.1315789475  0.4393939393181818  0.1896293  1.0000
  Se  Se718     1.0  0.1315789475  0.4393939393181818  0.6763452799999999  1.0000
  In  In480     1.0  0.1447368419736842  0.4469696970454546  0.8103706999999999  1.0000
  Se  Se719     1.0  0.1447368419736842  0.4469696970454546  0.32365471999999995  1.0000
  Se  Se720     1.0  0.14473684210526314  0.4318181818181819  0.0  1.0000
  In  In481     1.0  0.1315789472368421  0.4696969697727273  0.8103706999999999  1.0000
  In  In482     1.0  0.14473684223684208  0.46212121204545453  0.1896293  1.0000
  Se  Se721     1.0  0.1315789472368421  0.4696969697727273  0.32365471999999995  1.0000
  Se  Se722     1.0  0.14473684223684208  0.46212121204545453  0.6763452799999999  1.0000
  Se  Se723     1.0  0.13157894736842105  0.4545454545454546  0.0  1.0000
  In  In483     1.0  0.1315789475  0.4848484847727273  0.1896293  1.0000
  Se  Se724     1.0  0.1315789475  0.4848484847727273  0.6763452799999999  1.0000
  In  In484     1.0  0.1447368419736842  0.49242424250000005  0.8103706999999999  1.0000
  Se  Se725     1.0  0.1447368419736842  0.49242424250000005  0.32365471999999995  1.0000
  Se  Se726     1.0  0.14473684210526314  0.47727272727272735  0.0  1.0000
  In  In485     1.0  0.1315789472368421  0.5151515152272728  0.8103706999999999  1.0000
  In  In486     1.0  0.14473684223684208  0.5075757575  0.1896293  1.0000
  Se  Se727     1.0  0.1315789472368421  0.5151515152272728  0.32365471999999995  1.0000
  Se  Se728     1.0  0.14473684223684208  0.5075757575  0.6763452799999999  1.0000
  Se  Se729     1.0  0.13157894736842105  0.5  0.0  1.0000
  In  In487     1.0  0.1315789475  0.5303030302272728  0.1896293  1.0000
  Se  Se730     1.0  0.1315789475  0.5303030302272728  0.6763452799999999  1.0000
  In  In488     1.0  0.1447368419736842  0.5378787879545455  0.8103706999999999  1.0000
  Se  Se731     1.0  0.1447368419736842  0.5378787879545455  0.32365471999999995  1.0000
  Se  Se732     1.0  0.14473684210526314  0.5227272727272728  0.0  1.0000
  In  In489     1.0  0.1315789472368421  0.5606060606818183  0.8103706999999999  1.0000
  In  In490     1.0  0.14473684223684208  0.5530303029545455  0.1896293  1.0000
  Se  Se733     1.0  0.1315789472368421  0.5606060606818183  0.32365471999999995  1.0000
  Se  Se734     1.0  0.14473684223684208  0.5530303029545455  0.6763452799999999  1.0000
  Se  Se735     1.0  0.13157894736842105  0.5454545454545455  0.0  1.0000
  In  In491     1.0  0.1315789475  0.5757575756818183  0.1896293  1.0000
  Se  Se736     1.0  0.1315789475  0.5757575756818183  0.6763452799999999  1.0000
  In  In492     1.0  0.1447368419736842  0.583333333409091  0.8103706999999999  1.0000
  Se  Se737     1.0  0.1447368419736842  0.583333333409091  0.32365471999999995  1.0000
  Se  Se738     1.0  0.14473684210526314  0.5681818181818183  0.0  1.0000
  In  In493     1.0  0.1315789472368421  0.6060606061363637  0.8103706999999999  1.0000
  In  In494     1.0  0.14473684223684208  0.598484848409091  0.1896293  1.0000
  Se  Se739     1.0  0.1315789472368421  0.6060606061363637  0.32365471999999995  1.0000
  Se  Se740     1.0  0.14473684223684208  0.598484848409091  0.6763452799999999  1.0000
  Se  Se741     1.0  0.13157894736842105  0.590909090909091  0.0  1.0000
  In  In495     1.0  0.1315789475  0.6212121211363637  0.1896293  1.0000
  Se  Se742     1.0  0.1315789475  0.6212121211363637  0.6763452799999999  1.0000
  In  In496     1.0  0.1447368419736842  0.6287878788636365  0.8103706999999999  1.0000
  Se  Se743     1.0  0.1447368419736842  0.6287878788636365  0.32365471999999995  1.0000
  Se  Se744     1.0  0.14473684210526314  0.6136363636363638  0.0  1.0000
  In  In497     1.0  0.1315789472368421  0.6515151515909091  0.8103706999999999  1.0000
  In  In498     1.0  0.14473684223684208  0.6439393938636364  0.1896293  1.0000
  Se  Se745     1.0  0.1315789472368421  0.6515151515909091  0.32365471999999995  1.0000
  Se  Se746     1.0  0.14473684223684208  0.6439393938636364  0.6763452799999999  1.0000
  Se  Se747     1.0  0.13157894736842105  0.6363636363636365  0.0  1.0000
  In  In499     1.0  0.1315789475  0.6666666665909092  0.1896293  1.0000
  Se  Se748     1.0  0.1315789475  0.6666666665909092  0.6763452799999999  1.0000
  In  In500     1.0  0.1447368419736842  0.6742424243181819  0.8103706999999999  1.0000
  Se  Se749     1.0  0.1447368419736842  0.6742424243181819  0.32365471999999995  1.0000
  Se  Se750     1.0  0.14473684210526314  0.6590909090909092  0.0  1.0000
  In  In501     1.0  0.1315789472368421  0.6969696970454546  0.8103706999999999  1.0000
  In  In502     1.0  0.14473684223684208  0.6893939393181818  0.1896293  1.0000
  Se  Se751     1.0  0.1315789472368421  0.6969696970454546  0.32365471999999995  1.0000
  Se  Se752     1.0  0.14473684223684208  0.6893939393181818  0.6763452799999999  1.0000
  Se  Se753     1.0  0.13157894736842105  0.6818181818181819  0.0  1.0000
  In  In503     1.0  0.1315789475  0.7121212120454546  0.1896293  1.0000
  Se  Se754     1.0  0.1315789475  0.7121212120454546  0.6763452799999999  1.0000
  In  In504     1.0  0.1447368419736842  0.7196969697727273  0.8103706999999999  1.0000
  Se  Se755     1.0  0.1447368419736842  0.7196969697727273  0.32365471999999995  1.0000
  Se  Se756     1.0  0.14473684210526314  0.7045454545454547  0.0  1.0000
  In  In505     1.0  0.1315789472368421  0.7424242425  0.8103706999999999  1.0000
  In  In506     1.0  0.14473684223684208  0.7348484847727274  0.1896293  1.0000
  Se  Se757     1.0  0.1315789472368421  0.7424242425  0.32365471999999995  1.0000
  Se  Se758     1.0  0.14473684223684208  0.7348484847727274  0.6763452799999999  1.0000
  Se  Se759     1.0  0.13157894736842105  0.7272727272727273  0.0  1.0000
  In  In507     1.0  0.1315789475  0.7575757575000001  0.1896293  1.0000
  Se  Se760     1.0  0.1315789475  0.7575757575000001  0.6763452799999999  1.0000
  In  In508     1.0  0.1447368419736842  0.7651515152272729  0.8103706999999999  1.0000
  Se  Se761     1.0  0.1447368419736842  0.7651515152272729  0.32365471999999995  1.0000
  Se  Se762     1.0  0.14473684210526314  0.7500000000000001  0.0  1.0000
  In  In509     1.0  0.1315789472368421  0.7878787879545455  0.8103706999999999  1.0000
  In  In510     1.0  0.14473684223684208  0.7803030302272728  0.1896293  1.0000
  Se  Se763     1.0  0.1315789472368421  0.7878787879545455  0.32365471999999995  1.0000
  Se  Se764     1.0  0.14473684223684208  0.7803030302272728  0.6763452799999999  1.0000
  Se  Se765     1.0  0.13157894736842105  0.7727272727272728  0.0  1.0000
  In  In511     1.0  0.1315789475  0.8030303029545455  0.1896293  1.0000
  Se  Se766     1.0  0.1315789475  0.8030303029545455  0.6763452799999999  1.0000
  In  In512     1.0  0.1447368419736842  0.8106060606818183  0.8103706999999999  1.0000
  Se  Se767     1.0  0.1447368419736842  0.8106060606818183  0.32365471999999995  1.0000
  Se  Se768     1.0  0.14473684210526314  0.7954545454545455  0.0  1.0000
  In  In513     1.0  0.1315789472368421  0.833333333409091  0.8103706999999999  1.0000
  In  In514     1.0  0.14473684223684208  0.8257575756818182  0.1896293  1.0000
  Se  Se769     1.0  0.1315789472368421  0.833333333409091  0.32365471999999995  1.0000
  Se  Se770     1.0  0.14473684223684208  0.8257575756818182  0.6763452799999999  1.0000
  Se  Se771     1.0  0.13157894736842105  0.8181818181818182  0.0  1.0000
  In  In515     1.0  0.1315789475  0.848484848409091  0.1896293  1.0000
  Se  Se772     1.0  0.1315789475  0.848484848409091  0.6763452799999999  1.0000
  In  In516     1.0  0.1447368419736842  0.8560606061363636  0.8103706999999999  1.0000
  Se  Se773     1.0  0.1447368419736842  0.8560606061363636  0.32365471999999995  1.0000
  Se  Se774     1.0  0.14473684210526314  0.840909090909091  0.0  1.0000
  In  In517     1.0  0.1315789472368421  0.8787878788636366  0.8103706999999999  1.0000
  In  In518     1.0  0.14473684223684208  0.8712121211363637  0.1896293  1.0000
  Se  Se775     1.0  0.1315789472368421  0.8787878788636366  0.32365471999999995  1.0000
  Se  Se776     1.0  0.14473684223684208  0.8712121211363637  0.6763452799999999  1.0000
  Se  Se777     1.0  0.13157894736842105  0.8636363636363638  0.0  1.0000
  In  In519     1.0  0.1315789475  0.8939393938636365  0.1896293  1.0000
  Se  Se778     1.0  0.1315789475  0.8939393938636365  0.6763452799999999  1.0000
  In  In520     1.0  0.1447368419736842  0.9015151515909092  0.8103706999999999  1.0000
  Se  Se779     1.0  0.1447368419736842  0.9015151515909092  0.32365471999999995  1.0000
  Se  Se780     1.0  0.14473684210526314  0.8863636363636366  0.0  1.0000
  In  In521     1.0  0.1315789472368421  0.9242424243181819  0.8103706999999999  1.0000
  In  In522     1.0  0.14473684223684208  0.9166666665909091  0.1896293  1.0000
  Se  Se781     1.0  0.1315789472368421  0.9242424243181819  0.32365471999999995  1.0000
  Se  Se782     1.0  0.14473684223684208  0.9166666665909091  0.6763452799999999  1.0000
  Se  Se783     1.0  0.13157894736842105  0.9090909090909092  0.0  1.0000
  In  In523     1.0  0.1315789475  0.9393939393181818  0.1896293  1.0000
  Se  Se784     1.0  0.1315789475  0.9393939393181818  0.6763452799999999  1.0000
  In  In524     1.0  0.1447368419736842  0.9469696970454545  0.8103706999999999  1.0000
  Se  Se785     1.0  0.1447368419736842  0.9469696970454545  0.32365471999999995  1.0000
  Se  Se786     1.0  0.14473684210526314  0.9318181818181819  0.0  1.0000
  In  In525     1.0  0.1315789472368421  0.9696969697727275  0.8103706999999999  1.0000
  In  In526     1.0  0.14473684223684208  0.9621212120454546  0.1896293  1.0000
  Se  Se787     1.0  0.1315789472368421  0.9696969697727275  0.32365471999999995  1.0000
  Se  Se788     1.0  0.14473684223684208  0.9621212120454546  0.6763452799999999  1.0000
  Se  Se789     1.0  0.13157894736842105  0.9545454545454547  0.0  1.0000
  In  In527     1.0  0.1315789475  0.9848484847727275  0.1896293  1.0000
  Se  Se790     1.0  0.1315789475  0.9848484847727275  0.6763452799999999  1.0000
  In  In528     1.0  0.1447368419736842  0.9924242425  0.8103706999999999  1.0000
  Se  Se791     1.0  0.1447368419736842  0.9924242425  0.32365471999999995  1.0000
  Se  Se792     1.0  0.14473684210526314  0.9772727272727274  0.0  1.0000
  In  In529     1.0  0.15789473671052628  0.01515151522727273  0.8103706999999999  1.0000
  In  In530     1.0  0.1710526317105263  0.0075757575  0.1896293  1.0000
  Se  Se793     1.0  0.15789473671052628  0.01515151522727273  0.32365471999999995  1.0000
  Se  Se794     1.0  0.1710526317105263  0.0075757575  0.6763452799999999  1.0000
  Se  Se795     1.0  0.15789473684210523  0.0  0.0  1.0000
  In  In531     1.0  0.1578947369736842  0.030303030227272734  0.1896293  1.0000
  Se  Se796     1.0  0.1578947369736842  0.030303030227272734  0.6763452799999999  1.0000
  In  In532     1.0  0.17105263144736838  0.03787878795454546  0.8103706999999999  1.0000
  Se  Se797     1.0  0.17105263144736838  0.03787878795454546  0.32365471999999995  1.0000
  Se  Se798     1.0  0.17105263157894735  0.022727272727272728  0.0  1.0000
  In  In533     1.0  0.15789473671052628  0.06060606068181818  0.8103706999999999  1.0000
  In  In534     1.0  0.1710526317105263  0.05303030295454546  0.1896293  1.0000
  Se  Se799     1.0  0.15789473671052628  0.06060606068181818  0.32365471999999995  1.0000
  Se  Se800     1.0  0.1710526317105263  0.05303030295454546  0.6763452799999999  1.0000
  Se  Se801     1.0  0.15789473684210523  0.045454545454545456  0.0  1.0000
  In  In535     1.0  0.1578947369736842  0.07575757568181819  0.1896293  1.0000
  Se  Se802     1.0  0.1578947369736842  0.07575757568181819  0.6763452799999999  1.0000
  In  In536     1.0  0.17105263144736838  0.08333333340909092  0.8103706999999999  1.0000
  Se  Se803     1.0  0.17105263144736838  0.08333333340909092  0.32365471999999995  1.0000
  Se  Se804     1.0  0.17105263157894735  0.06818181818181819  0.0  1.0000
  In  In537     1.0  0.15789473671052628  0.10606060613636366  0.8103706999999999  1.0000
  In  In538     1.0  0.1710526317105263  0.09848484840909091  0.1896293  1.0000
  Se  Se805     1.0  0.15789473671052628  0.10606060613636366  0.32365471999999995  1.0000
  Se  Se806     1.0  0.1710526317105263  0.09848484840909091  0.6763452799999999  1.0000
  Se  Se807     1.0  0.15789473684210523  0.09090909090909091  0.0  1.0000
  In  In539     1.0  0.1578947369736842  0.12121212113636365  0.1896293  1.0000
  Se  Se808     1.0  0.1578947369736842  0.12121212113636365  0.6763452799999999  1.0000
  In  In540     1.0  0.17105263144736838  0.12878787886363638  0.8103706999999999  1.0000
  Se  Se809     1.0  0.17105263144736838  0.12878787886363638  0.32365471999999995  1.0000
  Se  Se810     1.0  0.17105263157894735  0.11363636363636365  0.0  1.0000
  In  In541     1.0  0.15789473671052628  0.15151515159090911  0.8103706999999999  1.0000
  In  In542     1.0  0.1710526317105263  0.1439393938636364  0.1896293  1.0000
  Se  Se811     1.0  0.15789473671052628  0.15151515159090911  0.32365471999999995  1.0000
  Se  Se812     1.0  0.1710526317105263  0.1439393938636364  0.6763452799999999  1.0000
  Se  Se813     1.0  0.15789473684210523  0.13636363636363638  0.0  1.0000
  In  In543     1.0  0.1578947369736842  0.16666666659090912  0.1896293  1.0000
  Se  Se814     1.0  0.1578947369736842  0.16666666659090912  0.6763452799999999  1.0000
  In  In544     1.0  0.17105263144736838  0.17424242431818185  0.8103706999999999  1.0000
  Se  Se815     1.0  0.17105263144736838  0.17424242431818185  0.32365471999999995  1.0000
  Se  Se816     1.0  0.17105263157894735  0.15909090909090912  0.0  1.0000
  In  In545     1.0  0.15789473671052628  0.19696969704545458  0.8103706999999999  1.0000
  In  In546     1.0  0.1710526317105263  0.18939393931818185  0.1896293  1.0000
  Se  Se817     1.0  0.15789473671052628  0.19696969704545458  0.32365471999999995  1.0000
  Se  Se818     1.0  0.1710526317105263  0.18939393931818185  0.6763452799999999  1.0000
  Se  Se819     1.0  0.15789473684210523  0.18181818181818182  0.0  1.0000
  In  In547     1.0  0.1578947369736842  0.21212121204545456  0.1896293  1.0000
  Se  Se820     1.0  0.1578947369736842  0.21212121204545456  0.6763452799999999  1.0000
  In  In548     1.0  0.17105263144736838  0.21969696977272726  0.8103706999999999  1.0000
  Se  Se821     1.0  0.17105263144736838  0.21969696977272726  0.32365471999999995  1.0000
  Se  Se822     1.0  0.17105263157894735  0.20454545454545456  0.0  1.0000
  In  In549     1.0  0.15789473671052628  0.2424242425  0.8103706999999999  1.0000
  In  In550     1.0  0.1710526317105263  0.2348484847727273  0.1896293  1.0000
  Se  Se823     1.0  0.15789473671052628  0.2424242425  0.32365471999999995  1.0000
  Se  Se824     1.0  0.1710526317105263  0.2348484847727273  0.6763452799999999  1.0000
  Se  Se825     1.0  0.15789473684210523  0.2272727272727273  0.0  1.0000
  In  In551     1.0  0.1578947369736842  0.2575757575  0.1896293  1.0000
  Se  Se826     1.0  0.1578947369736842  0.2575757575  0.6763452799999999  1.0000
  In  In552     1.0  0.17105263144736838  0.2651515152272727  0.8103706999999999  1.0000
  Se  Se827     1.0  0.17105263144736838  0.2651515152272727  0.32365471999999995  1.0000
  Se  Se828     1.0  0.17105263157894735  0.25  0.0  1.0000
  In  In553     1.0  0.15789473671052628  0.28787878795454547  0.8103706999999999  1.0000
  In  In554     1.0  0.1710526317105263  0.28030303022727276  0.1896293  1.0000
  Se  Se829     1.0  0.15789473671052628  0.28787878795454547  0.32365471999999995  1.0000
  Se  Se830     1.0  0.1710526317105263  0.28030303022727276  0.6763452799999999  1.0000
  Se  Se831     1.0  0.15789473684210523  0.27272727272727276  0.0  1.0000
  In  In555     1.0  0.1578947369736842  0.3030303029545455  0.1896293  1.0000
  Se  Se832     1.0  0.1578947369736842  0.3030303029545455  0.6763452799999999  1.0000
  In  In556     1.0  0.17105263144736838  0.3106060606818183  0.8103706999999999  1.0000
  Se  Se833     1.0  0.17105263144736838  0.3106060606818183  0.32365471999999995  1.0000
  Se  Se834     1.0  0.17105263157894735  0.2954545454545455  0.0  1.0000
  In  In557     1.0  0.15789473671052628  0.33333333340909094  0.8103706999999999  1.0000
  In  In558     1.0  0.1710526317105263  0.32575757568181823  0.1896293  1.0000
  Se  Se835     1.0  0.15789473671052628  0.33333333340909094  0.32365471999999995  1.0000
  Se  Se836     1.0  0.1710526317105263  0.32575757568181823  0.6763452799999999  1.0000
  Se  Se837     1.0  0.15789473684210523  0.31818181818181823  0.0  1.0000
  In  In559     1.0  0.1578947369736842  0.34848484840909094  0.1896293  1.0000
  Se  Se838     1.0  0.1578947369736842  0.34848484840909094  0.6763452799999999  1.0000
  In  In560     1.0  0.17105263144736838  0.3560606061363637  0.8103706999999999  1.0000
  Se  Se839     1.0  0.17105263144736838  0.3560606061363637  0.32365471999999995  1.0000
  Se  Se840     1.0  0.17105263157894735  0.34090909090909094  0.0  1.0000
  In  In561     1.0  0.15789473671052628  0.3787878788636364  0.8103706999999999  1.0000
  In  In562     1.0  0.1710526317105263  0.3712121211363637  0.1896293  1.0000
  Se  Se841     1.0  0.15789473671052628  0.3787878788636364  0.32365471999999995  1.0000
  Se  Se842     1.0  0.1710526317105263  0.3712121211363637  0.6763452799999999  1.0000
  Se  Se843     1.0  0.15789473684210523  0.36363636363636365  0.0  1.0000
  In  In563     1.0  0.1578947369736842  0.3939393938636364  0.1896293  1.0000
  Se  Se844     1.0  0.1578947369736842  0.3939393938636364  0.6763452799999999  1.0000
  In  In564     1.0  0.17105263144736838  0.40151515159090917  0.8103706999999999  1.0000
  Se  Se845     1.0  0.17105263144736838  0.40151515159090917  0.32365471999999995  1.0000
  Se  Se846     1.0  0.17105263157894735  0.3863636363636364  0.0  1.0000
  In  In565     1.0  0.15789473671052628  0.4242424243181818  0.8103706999999999  1.0000
  In  In566     1.0  0.1710526317105263  0.4166666665909091  0.1896293  1.0000
  Se  Se847     1.0  0.15789473671052628  0.4242424243181818  0.32365471999999995  1.0000
  Se  Se848     1.0  0.1710526317105263  0.4166666665909091  0.6763452799999999  1.0000
  Se  Se849     1.0  0.15789473684210523  0.4090909090909091  0.0  1.0000
  In  In567     1.0  0.1578947369736842  0.4393939393181818  0.1896293  1.0000
  Se  Se850     1.0  0.1578947369736842  0.4393939393181818  0.6763452799999999  1.0000
  In  In568     1.0  0.17105263144736838  0.4469696970454546  0.8103706999999999  1.0000
  Se  Se851     1.0  0.17105263144736838  0.4469696970454546  0.32365471999999995  1.0000
  Se  Se852     1.0  0.17105263157894735  0.4318181818181819  0.0  1.0000
  In  In569     1.0  0.15789473671052628  0.4696969697727273  0.8103706999999999  1.0000
  In  In570     1.0  0.1710526317105263  0.46212121204545453  0.1896293  1.0000
  Se  Se853     1.0  0.15789473671052628  0.4696969697727273  0.32365471999999995  1.0000
  Se  Se854     1.0  0.1710526317105263  0.46212121204545453  0.6763452799999999  1.0000
  Se  Se855     1.0  0.15789473684210523  0.4545454545454546  0.0  1.0000
  In  In571     1.0  0.1578947369736842  0.4848484847727273  0.1896293  1.0000
  Se  Se856     1.0  0.1578947369736842  0.4848484847727273  0.6763452799999999  1.0000
  In  In572     1.0  0.17105263144736838  0.49242424250000005  0.8103706999999999  1.0000
  Se  Se857     1.0  0.17105263144736838  0.49242424250000005  0.32365471999999995  1.0000
  Se  Se858     1.0  0.17105263157894735  0.47727272727272735  0.0  1.0000
  In  In573     1.0  0.15789473671052628  0.5151515152272728  0.8103706999999999  1.0000
  In  In574     1.0  0.1710526317105263  0.5075757575  0.1896293  1.0000
  Se  Se859     1.0  0.15789473671052628  0.5151515152272728  0.32365471999999995  1.0000
  Se  Se860     1.0  0.1710526317105263  0.5075757575  0.6763452799999999  1.0000
  Se  Se861     1.0  0.15789473684210523  0.5  0.0  1.0000
  In  In575     1.0  0.1578947369736842  0.5303030302272728  0.1896293  1.0000
  Se  Se862     1.0  0.1578947369736842  0.5303030302272728  0.6763452799999999  1.0000
  In  In576     1.0  0.17105263144736838  0.5378787879545455  0.8103706999999999  1.0000
  Se  Se863     1.0  0.17105263144736838  0.5378787879545455  0.32365471999999995  1.0000
  Se  Se864     1.0  0.17105263157894735  0.5227272727272728  0.0  1.0000
  In  In577     1.0  0.15789473671052628  0.5606060606818183  0.8103706999999999  1.0000
  In  In578     1.0  0.1710526317105263  0.5530303029545455  0.1896293  1.0000
  Se  Se865     1.0  0.15789473671052628  0.5606060606818183  0.32365471999999995  1.0000
  Se  Se866     1.0  0.1710526317105263  0.5530303029545455  0.6763452799999999  1.0000
  Se  Se867     1.0  0.15789473684210523  0.5454545454545455  0.0  1.0000
  In  In579     1.0  0.1578947369736842  0.5757575756818183  0.1896293  1.0000
  Se  Se868     1.0  0.1578947369736842  0.5757575756818183  0.6763452799999999  1.0000
  In  In580     1.0  0.17105263144736838  0.583333333409091  0.8103706999999999  1.0000
  Se  Se869     1.0  0.17105263144736838  0.583333333409091  0.32365471999999995  1.0000
  Se  Se870     1.0  0.17105263157894735  0.5681818181818183  0.0  1.0000
  In  In581     1.0  0.15789473671052628  0.6060606061363637  0.8103706999999999  1.0000
  In  In582     1.0  0.1710526317105263  0.598484848409091  0.1896293  1.0000
  Se  Se871     1.0  0.15789473671052628  0.6060606061363637  0.32365471999999995  1.0000
  Se  Se872     1.0  0.1710526317105263  0.598484848409091  0.6763452799999999  1.0000
  Se  Se873     1.0  0.15789473684210523  0.590909090909091  0.0  1.0000
  In  In583     1.0  0.1578947369736842  0.6212121211363637  0.1896293  1.0000
  Se  Se874     1.0  0.1578947369736842  0.6212121211363637  0.6763452799999999  1.0000
  In  In584     1.0  0.17105263144736838  0.6287878788636365  0.8103706999999999  1.0000
  Se  Se875     1.0  0.17105263144736838  0.6287878788636365  0.32365471999999995  1.0000
  Se  Se876     1.0  0.17105263157894735  0.6136363636363638  0.0  1.0000
  In  In585     1.0  0.15789473671052628  0.6515151515909091  0.8103706999999999  1.0000
  In  In586     1.0  0.1710526317105263  0.6439393938636364  0.1896293  1.0000
  Se  Se877     1.0  0.15789473671052628  0.6515151515909091  0.32365471999999995  1.0000
  Se  Se878     1.0  0.1710526317105263  0.6439393938636364  0.6763452799999999  1.0000
  Se  Se879     1.0  0.15789473684210523  0.6363636363636365  0.0  1.0000
  In  In587     1.0  0.1578947369736842  0.6666666665909092  0.1896293  1.0000
  Se  Se880     1.0  0.1578947369736842  0.6666666665909092  0.6763452799999999  1.0000
  In  In588     1.0  0.17105263144736838  0.6742424243181819  0.8103706999999999  1.0000
  Se  Se881     1.0  0.17105263144736838  0.6742424243181819  0.32365471999999995  1.0000
  Se  Se882     1.0  0.17105263157894735  0.6590909090909092  0.0  1.0000
  In  In589     1.0  0.15789473671052628  0.6969696970454546  0.8103706999999999  1.0000
  In  In590     1.0  0.1710526317105263  0.6893939393181818  0.1896293  1.0000
  Se  Se883     1.0  0.15789473671052628  0.6969696970454546  0.32365471999999995  1.0000
  Se  Se884     1.0  0.1710526317105263  0.6893939393181818  0.6763452799999999  1.0000
  Se  Se885     1.0  0.15789473684210523  0.6818181818181819  0.0  1.0000
  In  In591     1.0  0.1578947369736842  0.7121212120454546  0.1896293  1.0000
  Se  Se886     1.0  0.1578947369736842  0.7121212120454546  0.6763452799999999  1.0000
  In  In592     1.0  0.17105263144736838  0.7196969697727273  0.8103706999999999  1.0000
  Se  Se887     1.0  0.17105263144736838  0.7196969697727273  0.32365471999999995  1.0000
  Se  Se888     1.0  0.17105263157894735  0.7045454545454547  0.0  1.0000
  In  In593     1.0  0.15789473671052628  0.7424242425  0.8103706999999999  1.0000
  In  In594     1.0  0.1710526317105263  0.7348484847727274  0.1896293  1.0000
  Se  Se889     1.0  0.15789473671052628  0.7424242425  0.32365471999999995  1.0000
  Se  Se890     1.0  0.1710526317105263  0.7348484847727274  0.6763452799999999  1.0000
  Se  Se891     1.0  0.15789473684210523  0.7272727272727273  0.0  1.0000
  In  In595     1.0  0.1578947369736842  0.7575757575000001  0.1896293  1.0000
  Se  Se892     1.0  0.1578947369736842  0.7575757575000001  0.6763452799999999  1.0000
  In  In596     1.0  0.17105263144736838  0.7651515152272729  0.8103706999999999  1.0000
  Se  Se893     1.0  0.17105263144736838  0.7651515152272729  0.32365471999999995  1.0000
  Se  Se894     1.0  0.17105263157894735  0.7500000000000001  0.0  1.0000
  In  In597     1.0  0.15789473671052628  0.7878787879545455  0.8103706999999999  1.0000
  In  In598     1.0  0.1710526317105263  0.7803030302272728  0.1896293  1.0000
  Se  Se895     1.0  0.15789473671052628  0.7878787879545455  0.32365471999999995  1.0000
  Se  Se896     1.0  0.1710526317105263  0.7803030302272728  0.6763452799999999  1.0000
  Se  Se897     1.0  0.15789473684210523  0.7727272727272728  0.0  1.0000
  In  In599     1.0  0.1578947369736842  0.8030303029545455  0.1896293  1.0000
  Se  Se898     1.0  0.1578947369736842  0.8030303029545455  0.6763452799999999  1.0000
  In  In600     1.0  0.17105263144736838  0.8106060606818183  0.8103706999999999  1.0000
  Se  Se899     1.0  0.17105263144736838  0.8106060606818183  0.32365471999999995  1.0000
  Se  Se900     1.0  0.17105263157894735  0.7954545454545455  0.0  1.0000
  In  In601     1.0  0.15789473671052628  0.833333333409091  0.8103706999999999  1.0000
  In  In602     1.0  0.1710526317105263  0.8257575756818182  0.1896293  1.0000
  Se  Se901     1.0  0.15789473671052628  0.833333333409091  0.32365471999999995  1.0000
  Se  Se902     1.0  0.1710526317105263  0.8257575756818182  0.6763452799999999  1.0000
  Se  Se903     1.0  0.15789473684210523  0.8181818181818182  0.0  1.0000
  In  In603     1.0  0.1578947369736842  0.848484848409091  0.1896293  1.0000
  Se  Se904     1.0  0.1578947369736842  0.848484848409091  0.6763452799999999  1.0000
  In  In604     1.0  0.17105263144736838  0.8560606061363636  0.8103706999999999  1.0000
  Se  Se905     1.0  0.17105263144736838  0.8560606061363636  0.32365471999999995  1.0000
  Se  Se906     1.0  0.17105263157894735  0.840909090909091  0.0  1.0000
  In  In605     1.0  0.15789473671052628  0.8787878788636366  0.8103706999999999  1.0000
  In  In606     1.0  0.1710526317105263  0.8712121211363637  0.1896293  1.0000
  Se  Se907     1.0  0.15789473671052628  0.8787878788636366  0.32365471999999995  1.0000
  Se  Se908     1.0  0.1710526317105263  0.8712121211363637  0.6763452799999999  1.0000
  Se  Se909     1.0  0.15789473684210523  0.8636363636363638  0.0  1.0000
  In  In607     1.0  0.1578947369736842  0.8939393938636365  0.1896293  1.0000
  Se  Se910     1.0  0.1578947369736842  0.8939393938636365  0.6763452799999999  1.0000
  In  In608     1.0  0.17105263144736838  0.9015151515909092  0.8103706999999999  1.0000
  Se  Se911     1.0  0.17105263144736838  0.9015151515909092  0.32365471999999995  1.0000
  Se  Se912     1.0  0.17105263157894735  0.8863636363636366  0.0  1.0000
  In  In609     1.0  0.15789473671052628  0.9242424243181819  0.8103706999999999  1.0000
  In  In610     1.0  0.1710526317105263  0.9166666665909091  0.1896293  1.0000
  Se  Se913     1.0  0.15789473671052628  0.9242424243181819  0.32365471999999995  1.0000
  Se  Se914     1.0  0.1710526317105263  0.9166666665909091  0.6763452799999999  1.0000
  Se  Se915     1.0  0.15789473684210523  0.9090909090909092  0.0  1.0000
  In  In611     1.0  0.1578947369736842  0.9393939393181818  0.1896293  1.0000
  Se  Se916     1.0  0.1578947369736842  0.9393939393181818  0.6763452799999999  1.0000
  In  In612     1.0  0.17105263144736838  0.9469696970454545  0.8103706999999999  1.0000
  Se  Se917     1.0  0.17105263144736838  0.9469696970454545  0.32365471999999995  1.0000
  Se  Se918     1.0  0.17105263157894735  0.9318181818181819  0.0  1.0000
  In  In613     1.0  0.15789473671052628  0.9696969697727275  0.8103706999999999  1.0000
  In  In614     1.0  0.1710526317105263  0.9621212120454546  0.1896293  1.0000
  Se  Se919     1.0  0.15789473671052628  0.9696969697727275  0.32365471999999995  1.0000
  Se  Se920     1.0  0.1710526317105263  0.9621212120454546  0.6763452799999999  1.0000
  Se  Se921     1.0  0.15789473684210523  0.9545454545454547  0.0  1.0000
  In  In615     1.0  0.1578947369736842  0.9848484847727275  0.1896293  1.0000
  Se  Se922     1.0  0.1578947369736842  0.9848484847727275  0.6763452799999999  1.0000
  In  In616     1.0  0.17105263144736838  0.9924242425  0.8103706999999999  1.0000
  Se  Se923     1.0  0.17105263144736838  0.9924242425  0.32365471999999995  1.0000
  Se  Se924     1.0  0.17105263157894735  0.9772727272727274  0.0  1.0000
  In  In617     1.0  0.1842105261842105  0.01515151522727273  0.8103706999999999  1.0000
  In  In618     1.0  0.1973684211842105  0.0075757575  0.1896293  1.0000
  Se  Se925     1.0  0.1842105261842105  0.01515151522727273  0.32365471999999995  1.0000
  Se  Se926     1.0  0.1973684211842105  0.0075757575  0.6763452799999999  1.0000
  Se  Se927     1.0  0.18421052631578946  0.0  0.0  1.0000
  In  In619     1.0  0.1842105264473684  0.030303030227272734  0.1896293  1.0000
  Se  Se928     1.0  0.1842105264473684  0.030303030227272734  0.6763452799999999  1.0000
  In  In620     1.0  0.1973684209210526  0.03787878795454546  0.8103706999999999  1.0000
  Se  Se929     1.0  0.1973684209210526  0.03787878795454546  0.32365471999999995  1.0000
  Se  Se930     1.0  0.19736842105263155  0.022727272727272728  0.0  1.0000
  In  In621     1.0  0.1842105261842105  0.06060606068181818  0.8103706999999999  1.0000
  In  In622     1.0  0.1973684211842105  0.05303030295454546  0.1896293  1.0000
  Se  Se931     1.0  0.1842105261842105  0.06060606068181818  0.32365471999999995  1.0000
  Se  Se932     1.0  0.1973684211842105  0.05303030295454546  0.6763452799999999  1.0000
  Se  Se933     1.0  0.18421052631578946  0.045454545454545456  0.0  1.0000
  In  In623     1.0  0.1842105264473684  0.07575757568181819  0.1896293  1.0000
  Se  Se934     1.0  0.1842105264473684  0.07575757568181819  0.6763452799999999  1.0000
  In  In624     1.0  0.1973684209210526  0.08333333340909092  0.8103706999999999  1.0000
  Se  Se935     1.0  0.1973684209210526  0.08333333340909092  0.32365471999999995  1.0000
  Se  Se936     1.0  0.19736842105263155  0.06818181818181819  0.0  1.0000
  In  In625     1.0  0.1842105261842105  0.10606060613636366  0.8103706999999999  1.0000
  In  In626     1.0  0.1973684211842105  0.09848484840909091  0.1896293  1.0000
  Se  Se937     1.0  0.1842105261842105  0.10606060613636366  0.32365471999999995  1.0000
  Se  Se938     1.0  0.1973684211842105  0.09848484840909091  0.6763452799999999  1.0000
  Se  Se939     1.0  0.18421052631578946  0.09090909090909091  0.0  1.0000
  In  In627     1.0  0.1842105264473684  0.12121212113636365  0.1896293  1.0000
  Se  Se940     1.0  0.1842105264473684  0.12121212113636365  0.6763452799999999  1.0000
  In  In628     1.0  0.1973684209210526  0.12878787886363638  0.8103706999999999  1.0000
  Se  Se941     1.0  0.1973684209210526  0.12878787886363638  0.32365471999999995  1.0000
  Se  Se942     1.0  0.19736842105263155  0.11363636363636365  0.0  1.0000
  In  In629     1.0  0.1842105261842105  0.15151515159090911  0.8103706999999999  1.0000
  In  In630     1.0  0.1973684211842105  0.1439393938636364  0.1896293  1.0000
  Se  Se943     1.0  0.1842105261842105  0.15151515159090911  0.32365471999999995  1.0000
  Se  Se944     1.0  0.1973684211842105  0.1439393938636364  0.6763452799999999  1.0000
  Se  Se945     1.0  0.18421052631578946  0.13636363636363638  0.0  1.0000
  In  In631     1.0  0.1842105264473684  0.16666666659090912  0.1896293  1.0000
  Se  Se946     1.0  0.1842105264473684  0.16666666659090912  0.6763452799999999  1.0000
  In  In632     1.0  0.1973684209210526  0.17424242431818185  0.8103706999999999  1.0000
  Se  Se947     1.0  0.1973684209210526  0.17424242431818185  0.32365471999999995  1.0000
  Se  Se948     1.0  0.19736842105263155  0.15909090909090912  0.0  1.0000
  In  In633     1.0  0.1842105261842105  0.19696969704545458  0.8103706999999999  1.0000
  In  In634     1.0  0.1973684211842105  0.18939393931818185  0.1896293  1.0000
  Se  Se949     1.0  0.1842105261842105  0.19696969704545458  0.32365471999999995  1.0000
  Se  Se950     1.0  0.1973684211842105  0.18939393931818185  0.6763452799999999  1.0000
  Se  Se951     1.0  0.18421052631578946  0.18181818181818182  0.0  1.0000
  In  In635     1.0  0.1842105264473684  0.21212121204545456  0.1896293  1.0000
  Se  Se952     1.0  0.1842105264473684  0.21212121204545456  0.6763452799999999  1.0000
  In  In636     1.0  0.1973684209210526  0.21969696977272726  0.8103706999999999  1.0000
  Se  Se953     1.0  0.1973684209210526  0.21969696977272726  0.32365471999999995  1.0000
  Se  Se954     1.0  0.19736842105263155  0.20454545454545456  0.0  1.0000
  In  In637     1.0  0.1842105261842105  0.2424242425  0.8103706999999999  1.0000
  In  In638     1.0  0.1973684211842105  0.2348484847727273  0.1896293  1.0000
  Se  Se955     1.0  0.1842105261842105  0.2424242425  0.32365471999999995  1.0000
  Se  Se956     1.0  0.1973684211842105  0.2348484847727273  0.6763452799999999  1.0000
  Se  Se957     1.0  0.18421052631578946  0.2272727272727273  0.0  1.0000
  In  In639     1.0  0.1842105264473684  0.2575757575  0.1896293  1.0000
  Se  Se958     1.0  0.1842105264473684  0.2575757575  0.6763452799999999  1.0000
  In  In640     1.0  0.1973684209210526  0.2651515152272727  0.8103706999999999  1.0000
  Se  Se959     1.0  0.1973684209210526  0.2651515152272727  0.32365471999999995  1.0000
  Se  Se960     1.0  0.19736842105263155  0.25  0.0  1.0000
  In  In641     1.0  0.1842105261842105  0.28787878795454547  0.8103706999999999  1.0000
  In  In642     1.0  0.1973684211842105  0.28030303022727276  0.1896293  1.0000
  Se  Se961     1.0  0.1842105261842105  0.28787878795454547  0.32365471999999995  1.0000
  Se  Se962     1.0  0.1973684211842105  0.28030303022727276  0.6763452799999999  1.0000
  Se  Se963     1.0  0.18421052631578946  0.27272727272727276  0.0  1.0000
  In  In643     1.0  0.1842105264473684  0.3030303029545455  0.1896293  1.0000
  Se  Se964     1.0  0.1842105264473684  0.3030303029545455  0.6763452799999999  1.0000
  In  In644     1.0  0.1973684209210526  0.3106060606818183  0.8103706999999999  1.0000
  Se  Se965     1.0  0.1973684209210526  0.3106060606818183  0.32365471999999995  1.0000
  Se  Se966     1.0  0.19736842105263155  0.2954545454545455  0.0  1.0000
  In  In645     1.0  0.1842105261842105  0.33333333340909094  0.8103706999999999  1.0000
  In  In646     1.0  0.1973684211842105  0.32575757568181823  0.1896293  1.0000
  Se  Se967     1.0  0.1842105261842105  0.33333333340909094  0.32365471999999995  1.0000
  Se  Se968     1.0  0.1973684211842105  0.32575757568181823  0.6763452799999999  1.0000
  Se  Se969     1.0  0.18421052631578946  0.31818181818181823  0.0  1.0000
  In  In647     1.0  0.1842105264473684  0.34848484840909094  0.1896293  1.0000
  Se  Se970     1.0  0.1842105264473684  0.34848484840909094  0.6763452799999999  1.0000
  In  In648     1.0  0.1973684209210526  0.3560606061363637  0.8103706999999999  1.0000
  Se  Se971     1.0  0.1973684209210526  0.3560606061363637  0.32365471999999995  1.0000
  Se  Se972     1.0  0.19736842105263155  0.34090909090909094  0.0  1.0000
  In  In649     1.0  0.1842105261842105  0.3787878788636364  0.8103706999999999  1.0000
  In  In650     1.0  0.1973684211842105  0.3712121211363637  0.1896293  1.0000
  Se  Se973     1.0  0.1842105261842105  0.3787878788636364  0.32365471999999995  1.0000
  Se  Se974     1.0  0.1973684211842105  0.3712121211363637  0.6763452799999999  1.0000
  Se  Se975     1.0  0.18421052631578946  0.36363636363636365  0.0  1.0000
  In  In651     1.0  0.1842105264473684  0.3939393938636364  0.1896293  1.0000
  Se  Se976     1.0  0.1842105264473684  0.3939393938636364  0.6763452799999999  1.0000
  In  In652     1.0  0.1973684209210526  0.40151515159090917  0.8103706999999999  1.0000
  Se  Se977     1.0  0.1973684209210526  0.40151515159090917  0.32365471999999995  1.0000
  Se  Se978     1.0  0.19736842105263155  0.3863636363636364  0.0  1.0000
  In  In653     1.0  0.1842105261842105  0.4242424243181818  0.8103706999999999  1.0000
  In  In654     1.0  0.1973684211842105  0.4166666665909091  0.1896293  1.0000
  Se  Se979     1.0  0.1842105261842105  0.4242424243181818  0.32365471999999995  1.0000
  Se  Se980     1.0  0.1973684211842105  0.4166666665909091  0.6763452799999999  1.0000
  Se  Se981     1.0  0.18421052631578946  0.4090909090909091  0.0  1.0000
  In  In655     1.0  0.1842105264473684  0.4393939393181818  0.1896293  1.0000
  Se  Se982     1.0  0.1842105264473684  0.4393939393181818  0.6763452799999999  1.0000
  In  In656     1.0  0.1973684209210526  0.4469696970454546  0.8103706999999999  1.0000
  Se  Se983     1.0  0.1973684209210526  0.4469696970454546  0.32365471999999995  1.0000
  Se  Se984     1.0  0.19736842105263155  0.4318181818181819  0.0  1.0000
  In  In657     1.0  0.1842105261842105  0.4696969697727273  0.8103706999999999  1.0000
  In  In658     1.0  0.1973684211842105  0.46212121204545453  0.1896293  1.0000
  Se  Se985     1.0  0.1842105261842105  0.4696969697727273  0.32365471999999995  1.0000
  Se  Se986     1.0  0.1973684211842105  0.46212121204545453  0.6763452799999999  1.0000
  Se  Se987     1.0  0.18421052631578946  0.4545454545454546  0.0  1.0000
  In  In659     1.0  0.1842105264473684  0.4848484847727273  0.1896293  1.0000
  Se  Se988     1.0  0.1842105264473684  0.4848484847727273  0.6763452799999999  1.0000
  In  In660     1.0  0.1973684209210526  0.49242424250000005  0.8103706999999999  1.0000
  Se  Se989     1.0  0.1973684209210526  0.49242424250000005  0.32365471999999995  1.0000
  Se  Se990     1.0  0.19736842105263155  0.47727272727272735  0.0  1.0000
  In  In661     1.0  0.1842105261842105  0.5151515152272728  0.8103706999999999  1.0000
  In  In662     1.0  0.1973684211842105  0.5075757575  0.1896293  1.0000
  Se  Se991     1.0  0.1842105261842105  0.5151515152272728  0.32365471999999995  1.0000
  Se  Se992     1.0  0.1973684211842105  0.5075757575  0.6763452799999999  1.0000
  Se  Se993     1.0  0.18421052631578946  0.5  0.0  1.0000
  In  In663     1.0  0.1842105264473684  0.5303030302272728  0.1896293  1.0000
  Se  Se994     1.0  0.1842105264473684  0.5303030302272728  0.6763452799999999  1.0000
  In  In664     1.0  0.1973684209210526  0.5378787879545455  0.8103706999999999  1.0000
  Se  Se995     1.0  0.1973684209210526  0.5378787879545455  0.32365471999999995  1.0000
  Se  Se996     1.0  0.19736842105263155  0.5227272727272728  0.0  1.0000
  In  In665     1.0  0.1842105261842105  0.5606060606818183  0.8103706999999999  1.0000
  In  In666     1.0  0.1973684211842105  0.5530303029545455  0.1896293  1.0000
  Se  Se997     1.0  0.1842105261842105  0.5606060606818183  0.32365471999999995  1.0000
  Se  Se998     1.0  0.1973684211842105  0.5530303029545455  0.6763452799999999  1.0000
  Se  Se999     1.0  0.18421052631578946  0.5454545454545455  0.0  1.0000
  In  In667     1.0  0.1842105264473684  0.5757575756818183  0.1896293  1.0000
  Se  Se1000    1.0  0.1842105264473684  0.5757575756818183  0.6763452799999999  1.0000
  In  In668     1.0  0.1973684209210526  0.583333333409091  0.8103706999999999  1.0000
  Se  Se1001    1.0  0.1973684209210526  0.583333333409091  0.32365471999999995  1.0000
  Se  Se1002    1.0  0.19736842105263155  0.5681818181818183  0.0  1.0000
  In  In669     1.0  0.1842105261842105  0.6060606061363637  0.8103706999999999  1.0000
  In  In670     1.0  0.1973684211842105  0.598484848409091  0.1896293  1.0000
  Se  Se1003    1.0  0.1842105261842105  0.6060606061363637  0.32365471999999995  1.0000
  Se  Se1004    1.0  0.1973684211842105  0.598484848409091  0.6763452799999999  1.0000
  Se  Se1005    1.0  0.18421052631578946  0.590909090909091  0.0  1.0000
  In  In671     1.0  0.1842105264473684  0.6212121211363637  0.1896293  1.0000
  Se  Se1006    1.0  0.1842105264473684  0.6212121211363637  0.6763452799999999  1.0000
  In  In672     1.0  0.1973684209210526  0.6287878788636365  0.8103706999999999  1.0000
  Se  Se1007    1.0  0.1973684209210526  0.6287878788636365  0.32365471999999995  1.0000
  Se  Se1008    1.0  0.19736842105263155  0.6136363636363638  0.0  1.0000
  In  In673     1.0  0.1842105261842105  0.6515151515909091  0.8103706999999999  1.0000
  In  In674     1.0  0.1973684211842105  0.6439393938636364  0.1896293  1.0000
  Se  Se1009    1.0  0.1842105261842105  0.6515151515909091  0.32365471999999995  1.0000
  Se  Se1010    1.0  0.1973684211842105  0.6439393938636364  0.6763452799999999  1.0000
  Se  Se1011    1.0  0.18421052631578946  0.6363636363636365  0.0  1.0000
  In  In675     1.0  0.1842105264473684  0.6666666665909092  0.1896293  1.0000
  Se  Se1012    1.0  0.1842105264473684  0.6666666665909092  0.6763452799999999  1.0000
  In  In676     1.0  0.1973684209210526  0.6742424243181819  0.8103706999999999  1.0000
  Se  Se1013    1.0  0.1973684209210526  0.6742424243181819  0.32365471999999995  1.0000
  Se  Se1014    1.0  0.19736842105263155  0.6590909090909092  0.0  1.0000
  In  In677     1.0  0.1842105261842105  0.6969696970454546  0.8103706999999999  1.0000
  In  In678     1.0  0.1973684211842105  0.6893939393181818  0.1896293  1.0000
  Se  Se1015    1.0  0.1842105261842105  0.6969696970454546  0.32365471999999995  1.0000
  Se  Se1016    1.0  0.1973684211842105  0.6893939393181818  0.6763452799999999  1.0000
  Se  Se1017    1.0  0.18421052631578946  0.6818181818181819  0.0  1.0000
  In  In679     1.0  0.1842105264473684  0.7121212120454546  0.1896293  1.0000
  Se  Se1018    1.0  0.1842105264473684  0.7121212120454546  0.6763452799999999  1.0000
  In  In680     1.0  0.1973684209210526  0.7196969697727273  0.8103706999999999  1.0000
  Se  Se1019    1.0  0.1973684209210526  0.7196969697727273  0.32365471999999995  1.0000
  Se  Se1020    1.0  0.19736842105263155  0.7045454545454547  0.0  1.0000
  In  In681     1.0  0.1842105261842105  0.7424242425  0.8103706999999999  1.0000
  In  In682     1.0  0.1973684211842105  0.7348484847727274  0.1896293  1.0000
  Se  Se1021    1.0  0.1842105261842105  0.7424242425  0.32365471999999995  1.0000
  Se  Se1022    1.0  0.1973684211842105  0.7348484847727274  0.6763452799999999  1.0000
  Se  Se1023    1.0  0.18421052631578946  0.7272727272727273  0.0  1.0000
  In  In683     1.0  0.1842105264473684  0.7575757575000001  0.1896293  1.0000
  Se  Se1024    1.0  0.1842105264473684  0.7575757575000001  0.6763452799999999  1.0000
  In  In684     1.0  0.1973684209210526  0.7651515152272729  0.8103706999999999  1.0000
  Se  Se1025    1.0  0.1973684209210526  0.7651515152272729  0.32365471999999995  1.0000
  Se  Se1026    1.0  0.19736842105263155  0.7500000000000001  0.0  1.0000
  In  In685     1.0  0.1842105261842105  0.7878787879545455  0.8103706999999999  1.0000
  In  In686     1.0  0.1973684211842105  0.7803030302272728  0.1896293  1.0000
  Se  Se1027    1.0  0.1842105261842105  0.7878787879545455  0.32365471999999995  1.0000
  Se  Se1028    1.0  0.1973684211842105  0.7803030302272728  0.6763452799999999  1.0000
  Se  Se1029    1.0  0.18421052631578946  0.7727272727272728  0.0  1.0000
  In  In687     1.0  0.1842105264473684  0.8030303029545455  0.1896293  1.0000
  Se  Se1030    1.0  0.1842105264473684  0.8030303029545455  0.6763452799999999  1.0000
  In  In688     1.0  0.1973684209210526  0.8106060606818183  0.8103706999999999  1.0000
  Se  Se1031    1.0  0.1973684209210526  0.8106060606818183  0.32365471999999995  1.0000
  Se  Se1032    1.0  0.19736842105263155  0.7954545454545455  0.0  1.0000
  In  In689     1.0  0.1842105261842105  0.833333333409091  0.8103706999999999  1.0000
  In  In690     1.0  0.1973684211842105  0.8257575756818182  0.1896293  1.0000
  Se  Se1033    1.0  0.1842105261842105  0.833333333409091  0.32365471999999995  1.0000
  Se  Se1034    1.0  0.1973684211842105  0.8257575756818182  0.6763452799999999  1.0000
  Se  Se1035    1.0  0.18421052631578946  0.8181818181818182  0.0  1.0000
  In  In691     1.0  0.1842105264473684  0.848484848409091  0.1896293  1.0000
  Se  Se1036    1.0  0.1842105264473684  0.848484848409091  0.6763452799999999  1.0000
  In  In692     1.0  0.1973684209210526  0.8560606061363636  0.8103706999999999  1.0000
  Se  Se1037    1.0  0.1973684209210526  0.8560606061363636  0.32365471999999995  1.0000
  Se  Se1038    1.0  0.19736842105263155  0.840909090909091  0.0  1.0000
  In  In693     1.0  0.1842105261842105  0.8787878788636366  0.8103706999999999  1.0000
  In  In694     1.0  0.1973684211842105  0.8712121211363637  0.1896293  1.0000
  Se  Se1039    1.0  0.1842105261842105  0.8787878788636366  0.32365471999999995  1.0000
  Se  Se1040    1.0  0.1973684211842105  0.8712121211363637  0.6763452799999999  1.0000
  Se  Se1041    1.0  0.18421052631578946  0.8636363636363638  0.0  1.0000
  In  In695     1.0  0.1842105264473684  0.8939393938636365  0.1896293  1.0000
  Se  Se1042    1.0  0.1842105264473684  0.8939393938636365  0.6763452799999999  1.0000
  In  In696     1.0  0.1973684209210526  0.9015151515909092  0.8103706999999999  1.0000
  Se  Se1043    1.0  0.1973684209210526  0.9015151515909092  0.32365471999999995  1.0000
  Se  Se1044    1.0  0.19736842105263155  0.8863636363636366  0.0  1.0000
  In  In697     1.0  0.1842105261842105  0.9242424243181819  0.8103706999999999  1.0000
  In  In698     1.0  0.1973684211842105  0.9166666665909091  0.1896293  1.0000
  Se  Se1045    1.0  0.1842105261842105  0.9242424243181819  0.32365471999999995  1.0000
  Se  Se1046    1.0  0.1973684211842105  0.9166666665909091  0.6763452799999999  1.0000
  Se  Se1047    1.0  0.18421052631578946  0.9090909090909092  0.0  1.0000
  In  In699     1.0  0.1842105264473684  0.9393939393181818  0.1896293  1.0000
  Se  Se1048    1.0  0.1842105264473684  0.9393939393181818  0.6763452799999999  1.0000
  In  In700     1.0  0.1973684209210526  0.9469696970454545  0.8103706999999999  1.0000
  Se  Se1049    1.0  0.1973684209210526  0.9469696970454545  0.32365471999999995  1.0000
  Se  Se1050    1.0  0.19736842105263155  0.9318181818181819  0.0  1.0000
  In  In701     1.0  0.1842105261842105  0.9696969697727275  0.8103706999999999  1.0000
  In  In702     1.0  0.1973684211842105  0.9621212120454546  0.1896293  1.0000
  Se  Se1051    1.0  0.1842105261842105  0.9696969697727275  0.32365471999999995  1.0000
  Se  Se1052    1.0  0.1973684211842105  0.9621212120454546  0.6763452799999999  1.0000
  Se  Se1053    1.0  0.18421052631578946  0.9545454545454547  0.0  1.0000
  In  In703     1.0  0.1842105264473684  0.9848484847727275  0.1896293  1.0000
  Se  Se1054    1.0  0.1842105264473684  0.9848484847727275  0.6763452799999999  1.0000
  In  In704     1.0  0.1973684209210526  0.9924242425  0.8103706999999999  1.0000
  Se  Se1055    1.0  0.1973684209210526  0.9924242425  0.32365471999999995  1.0000
  Se  Se1056    1.0  0.19736842105263155  0.9772727272727274  0.0  1.0000
  In  In705     1.0  0.21052631565789473  0.01515151522727273  0.8103706999999999  1.0000
  In  In706     1.0  0.2236842106578947  0.0075757575  0.1896293  1.0000
  Se  Se1057    1.0  0.21052631565789473  0.01515151522727273  0.32365471999999995  1.0000
  Se  Se1058    1.0  0.2236842106578947  0.0075757575  0.6763452799999999  1.0000
  Se  Se1059    1.0  0.21052631578947367  0.0  0.0  1.0000
  In  In707     1.0  0.21052631592105261  0.030303030227272734  0.1896293  1.0000
  Se  Se1060    1.0  0.21052631592105261  0.030303030227272734  0.6763452799999999  1.0000
  In  In708     1.0  0.22368421039473682  0.03787878795454546  0.8103706999999999  1.0000
  Se  Se1061    1.0  0.22368421039473682  0.03787878795454546  0.32365471999999995  1.0000
  Se  Se1062    1.0  0.22368421052631576  0.022727272727272728  0.0  1.0000
  In  In709     1.0  0.21052631565789473  0.06060606068181818  0.8103706999999999  1.0000
  In  In710     1.0  0.2236842106578947  0.05303030295454546  0.1896293  1.0000
  Se  Se1063    1.0  0.21052631565789473  0.06060606068181818  0.32365471999999995  1.0000
  Se  Se1064    1.0  0.2236842106578947  0.05303030295454546  0.6763452799999999  1.0000
  Se  Se1065    1.0  0.21052631578947367  0.045454545454545456  0.0  1.0000
  In  In711     1.0  0.21052631592105261  0.07575757568181819  0.1896293  1.0000
  Se  Se1066    1.0  0.21052631592105261  0.07575757568181819  0.6763452799999999  1.0000
  In  In712     1.0  0.22368421039473682  0.08333333340909092  0.8103706999999999  1.0000
  Se  Se1067    1.0  0.22368421039473682  0.08333333340909092  0.32365471999999995  1.0000
  Se  Se1068    1.0  0.22368421052631576  0.06818181818181819  0.0  1.0000
  In  In713     1.0  0.21052631565789473  0.10606060613636366  0.8103706999999999  1.0000
  In  In714     1.0  0.2236842106578947  0.09848484840909091  0.1896293  1.0000
  Se  Se1069    1.0  0.21052631565789473  0.10606060613636366  0.32365471999999995  1.0000
  Se  Se1070    1.0  0.2236842106578947  0.09848484840909091  0.6763452799999999  1.0000
  Se  Se1071    1.0  0.21052631578947367  0.09090909090909091  0.0  1.0000
  In  In715     1.0  0.21052631592105261  0.12121212113636365  0.1896293  1.0000
  Se  Se1072    1.0  0.21052631592105261  0.12121212113636365  0.6763452799999999  1.0000
  In  In716     1.0  0.22368421039473682  0.12878787886363638  0.8103706999999999  1.0000
  Se  Se1073    1.0  0.22368421039473682  0.12878787886363638  0.32365471999999995  1.0000
  Se  Se1074    1.0  0.22368421052631576  0.11363636363636365  0.0  1.0000
  In  In717     1.0  0.21052631565789473  0.15151515159090911  0.8103706999999999  1.0000
  In  In718     1.0  0.2236842106578947  0.1439393938636364  0.1896293  1.0000
  Se  Se1075    1.0  0.21052631565789473  0.15151515159090911  0.32365471999999995  1.0000
  Se  Se1076    1.0  0.2236842106578947  0.1439393938636364  0.6763452799999999  1.0000
  Se  Se1077    1.0  0.21052631578947367  0.13636363636363638  0.0  1.0000
  In  In719     1.0  0.21052631592105261  0.16666666659090912  0.1896293  1.0000
  Se  Se1078    1.0  0.21052631592105261  0.16666666659090912  0.6763452799999999  1.0000
  In  In720     1.0  0.22368421039473682  0.17424242431818185  0.8103706999999999  1.0000
  Se  Se1079    1.0  0.22368421039473682  0.17424242431818185  0.32365471999999995  1.0000
  Se  Se1080    1.0  0.22368421052631576  0.15909090909090912  0.0  1.0000
  In  In721     1.0  0.21052631565789473  0.19696969704545458  0.8103706999999999  1.0000
  In  In722     1.0  0.2236842106578947  0.18939393931818185  0.1896293  1.0000
  Se  Se1081    1.0  0.21052631565789473  0.19696969704545458  0.32365471999999995  1.0000
  Se  Se1082    1.0  0.2236842106578947  0.18939393931818185  0.6763452799999999  1.0000
  Se  Se1083    1.0  0.21052631578947367  0.18181818181818182  0.0  1.0000
  In  In723     1.0  0.21052631592105261  0.21212121204545456  0.1896293  1.0000
  Se  Se1084    1.0  0.21052631592105261  0.21212121204545456  0.6763452799999999  1.0000
  In  In724     1.0  0.22368421039473682  0.21969696977272726  0.8103706999999999  1.0000
  Se  Se1085    1.0  0.22368421039473682  0.21969696977272726  0.32365471999999995  1.0000
  Se  Se1086    1.0  0.22368421052631576  0.20454545454545456  0.0  1.0000
  In  In725     1.0  0.21052631565789473  0.2424242425  0.8103706999999999  1.0000
  In  In726     1.0  0.2236842106578947  0.2348484847727273  0.1896293  1.0000
  Se  Se1087    1.0  0.21052631565789473  0.2424242425  0.32365471999999995  1.0000
  Se  Se1088    1.0  0.2236842106578947  0.2348484847727273  0.6763452799999999  1.0000
  Se  Se1089    1.0  0.21052631578947367  0.2272727272727273  0.0  1.0000
  In  In727     1.0  0.21052631592105261  0.2575757575  0.1896293  1.0000
  Se  Se1090    1.0  0.21052631592105261  0.2575757575  0.6763452799999999  1.0000
  In  In728     1.0  0.22368421039473682  0.2651515152272727  0.8103706999999999  1.0000
  Se  Se1091    1.0  0.22368421039473682  0.2651515152272727  0.32365471999999995  1.0000
  Se  Se1092    1.0  0.22368421052631576  0.25  0.0  1.0000
  In  In729     1.0  0.21052631565789473  0.28787878795454547  0.8103706999999999  1.0000
  In  In730     1.0  0.2236842106578947  0.28030303022727276  0.1896293  1.0000
  Se  Se1093    1.0  0.21052631565789473  0.28787878795454547  0.32365471999999995  1.0000
  Se  Se1094    1.0  0.2236842106578947  0.28030303022727276  0.6763452799999999  1.0000
  Se  Se1095    1.0  0.21052631578947367  0.27272727272727276  0.0  1.0000
  In  In731     1.0  0.21052631592105261  0.3030303029545455  0.1896293  1.0000
  Se  Se1096    1.0  0.21052631592105261  0.3030303029545455  0.6763452799999999  1.0000
  In  In732     1.0  0.22368421039473682  0.3106060606818183  0.8103706999999999  1.0000
  Se  Se1097    1.0  0.22368421039473682  0.3106060606818183  0.32365471999999995  1.0000
  Se  Se1098    1.0  0.22368421052631576  0.2954545454545455  0.0  1.0000
  In  In733     1.0  0.21052631565789473  0.33333333340909094  0.8103706999999999  1.0000
  In  In734     1.0  0.2236842106578947  0.32575757568181823  0.1896293  1.0000
  Se  Se1099    1.0  0.21052631565789473  0.33333333340909094  0.32365471999999995  1.0000
  Se  Se1100    1.0  0.2236842106578947  0.32575757568181823  0.6763452799999999  1.0000
  Se  Se1101    1.0  0.21052631578947367  0.31818181818181823  0.0  1.0000
  In  In735     1.0  0.21052631592105261  0.34848484840909094  0.1896293  1.0000
  Se  Se1102    1.0  0.21052631592105261  0.34848484840909094  0.6763452799999999  1.0000
  In  In736     1.0  0.22368421039473682  0.3560606061363637  0.8103706999999999  1.0000
  Se  Se1103    1.0  0.22368421039473682  0.3560606061363637  0.32365471999999995  1.0000
  Se  Se1104    1.0  0.22368421052631576  0.34090909090909094  0.0  1.0000
  In  In737     1.0  0.21052631565789473  0.3787878788636364  0.8103706999999999  1.0000
  In  In738     1.0  0.2236842106578947  0.3712121211363637  0.1896293  1.0000
  Se  Se1105    1.0  0.21052631565789473  0.3787878788636364  0.32365471999999995  1.0000
  Se  Se1106    1.0  0.2236842106578947  0.3712121211363637  0.6763452799999999  1.0000
  Se  Se1107    1.0  0.21052631578947367  0.36363636363636365  0.0  1.0000
  In  In739     1.0  0.21052631592105261  0.3939393938636364  0.1896293  1.0000
  Se  Se1108    1.0  0.21052631592105261  0.3939393938636364  0.6763452799999999  1.0000
  In  In740     1.0  0.22368421039473682  0.40151515159090917  0.8103706999999999  1.0000
  Se  Se1109    1.0  0.22368421039473682  0.40151515159090917  0.32365471999999995  1.0000
  Se  Se1110    1.0  0.22368421052631576  0.3863636363636364  0.0  1.0000
  In  In741     1.0  0.21052631565789473  0.4242424243181818  0.8103706999999999  1.0000
  In  In742     1.0  0.2236842106578947  0.4166666665909091  0.1896293  1.0000
  Se  Se1111    1.0  0.21052631565789473  0.4242424243181818  0.32365471999999995  1.0000
  Se  Se1112    1.0  0.2236842106578947  0.4166666665909091  0.6763452799999999  1.0000
  Se  Se1113    1.0  0.21052631578947367  0.4090909090909091  0.0  1.0000
  In  In743     1.0  0.21052631592105261  0.4393939393181818  0.1896293  1.0000
  Se  Se1114    1.0  0.21052631592105261  0.4393939393181818  0.6763452799999999  1.0000
  In  In744     1.0  0.22368421039473682  0.4469696970454546  0.8103706999999999  1.0000
  Se  Se1115    1.0  0.22368421039473682  0.4469696970454546  0.32365471999999995  1.0000
  Se  Se1116    1.0  0.22368421052631576  0.4318181818181819  0.0  1.0000
  In  In745     1.0  0.21052631565789473  0.4696969697727273  0.8103706999999999  1.0000
  In  In746     1.0  0.2236842106578947  0.46212121204545453  0.1896293  1.0000
  Se  Se1117    1.0  0.21052631565789473  0.4696969697727273  0.32365471999999995  1.0000
  Se  Se1118    1.0  0.2236842106578947  0.46212121204545453  0.6763452799999999  1.0000
  Se  Se1119    1.0  0.21052631578947367  0.4545454545454546  0.0  1.0000
  In  In747     1.0  0.21052631592105261  0.4848484847727273  0.1896293  1.0000
  Se  Se1120    1.0  0.21052631592105261  0.4848484847727273  0.6763452799999999  1.0000
  In  In748     1.0  0.22368421039473682  0.49242424250000005  0.8103706999999999  1.0000
  Se  Se1121    1.0  0.22368421039473682  0.49242424250000005  0.32365471999999995  1.0000
  Se  Se1122    1.0  0.22368421052631576  0.47727272727272735  0.0  1.0000
  In  In749     1.0  0.21052631565789473  0.5151515152272728  0.8103706999999999  1.0000
  In  In750     1.0  0.2236842106578947  0.5075757575  0.1896293  1.0000
  Se  Se1123    1.0  0.21052631565789473  0.5151515152272728  0.32365471999999995  1.0000
  Se  Se1124    1.0  0.2236842106578947  0.5075757575  0.6763452799999999  1.0000
  Se  Se1125    1.0  0.21052631578947367  0.5  0.0  1.0000
  In  In751     1.0  0.21052631592105261  0.5303030302272728  0.1896293  1.0000
  Se  Se1126    1.0  0.21052631592105261  0.5303030302272728  0.6763452799999999  1.0000
  In  In752     1.0  0.22368421039473682  0.5378787879545455  0.8103706999999999  1.0000
  Se  Se1127    1.0  0.22368421039473682  0.5378787879545455  0.32365471999999995  1.0000
  Se  Se1128    1.0  0.22368421052631576  0.5227272727272728  0.0  1.0000
  In  In753     1.0  0.21052631565789473  0.5606060606818183  0.8103706999999999  1.0000
  In  In754     1.0  0.2236842106578947  0.5530303029545455  0.1896293  1.0000
  Se  Se1129    1.0  0.21052631565789473  0.5606060606818183  0.32365471999999995  1.0000
  Se  Se1130    1.0  0.2236842106578947  0.5530303029545455  0.6763452799999999  1.0000
  Se  Se1131    1.0  0.21052631578947367  0.5454545454545455  0.0  1.0000
  In  In755     1.0  0.21052631592105261  0.5757575756818183  0.1896293  1.0000
  Se  Se1132    1.0  0.21052631592105261  0.5757575756818183  0.6763452799999999  1.0000
  In  In756     1.0  0.22368421039473682  0.583333333409091  0.8103706999999999  1.0000
  Se  Se1133    1.0  0.22368421039473682  0.583333333409091  0.32365471999999995  1.0000
  Se  Se1134    1.0  0.22368421052631576  0.5681818181818183  0.0  1.0000
  In  In757     1.0  0.21052631565789473  0.6060606061363637  0.8103706999999999  1.0000
  In  In758     1.0  0.2236842106578947  0.598484848409091  0.1896293  1.0000
  Se  Se1135    1.0  0.21052631565789473  0.6060606061363637  0.32365471999999995  1.0000
  Se  Se1136    1.0  0.2236842106578947  0.598484848409091  0.6763452799999999  1.0000
  Se  Se1137    1.0  0.21052631578947367  0.590909090909091  0.0  1.0000
  In  In759     1.0  0.21052631592105261  0.6212121211363637  0.1896293  1.0000
  Se  Se1138    1.0  0.21052631592105261  0.6212121211363637  0.6763452799999999  1.0000
  In  In760     1.0  0.22368421039473682  0.6287878788636365  0.8103706999999999  1.0000
  Se  Se1139    1.0  0.22368421039473682  0.6287878788636365  0.32365471999999995  1.0000
  Se  Se1140    1.0  0.22368421052631576  0.6136363636363638  0.0  1.0000
  In  In761     1.0  0.21052631565789473  0.6515151515909091  0.8103706999999999  1.0000
  In  In762     1.0  0.2236842106578947  0.6439393938636364  0.1896293  1.0000
  Se  Se1141    1.0  0.21052631565789473  0.6515151515909091  0.32365471999999995  1.0000
  Se  Se1142    1.0  0.2236842106578947  0.6439393938636364  0.6763452799999999  1.0000
  Se  Se1143    1.0  0.21052631578947367  0.6363636363636365  0.0  1.0000
  In  In763     1.0  0.21052631592105261  0.6666666665909092  0.1896293  1.0000
  Se  Se1144    1.0  0.21052631592105261  0.6666666665909092  0.6763452799999999  1.0000
  In  In764     1.0  0.22368421039473682  0.6742424243181819  0.8103706999999999  1.0000
  Se  Se1145    1.0  0.22368421039473682  0.6742424243181819  0.32365471999999995  1.0000
  Se  Se1146    1.0  0.22368421052631576  0.6590909090909092  0.0  1.0000
  In  In765     1.0  0.21052631565789473  0.6969696970454546  0.8103706999999999  1.0000
  In  In766     1.0  0.2236842106578947  0.6893939393181818  0.1896293  1.0000
  Se  Se1147    1.0  0.21052631565789473  0.6969696970454546  0.32365471999999995  1.0000
  Se  Se1148    1.0  0.2236842106578947  0.6893939393181818  0.6763452799999999  1.0000
  Se  Se1149    1.0  0.21052631578947367  0.6818181818181819  0.0  1.0000
  In  In767     1.0  0.21052631592105261  0.7121212120454546  0.1896293  1.0000
  Se  Se1150    1.0  0.21052631592105261  0.7121212120454546  0.6763452799999999  1.0000
  In  In768     1.0  0.22368421039473682  0.7196969697727273  0.8103706999999999  1.0000
  Se  Se1151    1.0  0.22368421039473682  0.7196969697727273  0.32365471999999995  1.0000
  Se  Se1152    1.0  0.22368421052631576  0.7045454545454547  0.0  1.0000
  In  In769     1.0  0.21052631565789473  0.7424242425  0.8103706999999999  1.0000
  In  In770     1.0  0.2236842106578947  0.7348484847727274  0.1896293  1.0000
  Se  Se1153    1.0  0.21052631565789473  0.7424242425  0.32365471999999995  1.0000
  Se  Se1154    1.0  0.2236842106578947  0.7348484847727274  0.6763452799999999  1.0000
  Se  Se1155    1.0  0.21052631578947367  0.7272727272727273  0.0  1.0000
  In  In771     1.0  0.21052631592105261  0.7575757575000001  0.1896293  1.0000
  Se  Se1156    1.0  0.21052631592105261  0.7575757575000001  0.6763452799999999  1.0000
  In  In772     1.0  0.22368421039473682  0.7651515152272729  0.8103706999999999  1.0000
  Se  Se1157    1.0  0.22368421039473682  0.7651515152272729  0.32365471999999995  1.0000
  Se  Se1158    1.0  0.22368421052631576  0.7500000000000001  0.0  1.0000
  In  In773     1.0  0.21052631565789473  0.7878787879545455  0.8103706999999999  1.0000
  In  In774     1.0  0.2236842106578947  0.7803030302272728  0.1896293  1.0000
  Se  Se1159    1.0  0.21052631565789473  0.7878787879545455  0.32365471999999995  1.0000
  Se  Se1160    1.0  0.2236842106578947  0.7803030302272728  0.6763452799999999  1.0000
  Se  Se1161    1.0  0.21052631578947367  0.7727272727272728  0.0  1.0000
  In  In775     1.0  0.21052631592105261  0.8030303029545455  0.1896293  1.0000
  Se  Se1162    1.0  0.21052631592105261  0.8030303029545455  0.6763452799999999  1.0000
  In  In776     1.0  0.22368421039473682  0.8106060606818183  0.8103706999999999  1.0000
  Se  Se1163    1.0  0.22368421039473682  0.8106060606818183  0.32365471999999995  1.0000
  Se  Se1164    1.0  0.22368421052631576  0.7954545454545455  0.0  1.0000
  In  In777     1.0  0.21052631565789473  0.833333333409091  0.8103706999999999  1.0000
  In  In778     1.0  0.2236842106578947  0.8257575756818182  0.1896293  1.0000
  Se  Se1165    1.0  0.21052631565789473  0.833333333409091  0.32365471999999995  1.0000
  Se  Se1166    1.0  0.2236842106578947  0.8257575756818182  0.6763452799999999  1.0000
  Se  Se1167    1.0  0.21052631578947367  0.8181818181818182  0.0  1.0000
  In  In779     1.0  0.21052631592105261  0.848484848409091  0.1896293  1.0000
  Se  Se1168    1.0  0.21052631592105261  0.848484848409091  0.6763452799999999  1.0000
  In  In780     1.0  0.22368421039473682  0.8560606061363636  0.8103706999999999  1.0000
  Se  Se1169    1.0  0.22368421039473682  0.8560606061363636  0.32365471999999995  1.0000
  Se  Se1170    1.0  0.22368421052631576  0.840909090909091  0.0  1.0000
  In  In781     1.0  0.21052631565789473  0.8787878788636366  0.8103706999999999  1.0000
  In  In782     1.0  0.2236842106578947  0.8712121211363637  0.1896293  1.0000
  Se  Se1171    1.0  0.21052631565789473  0.8787878788636366  0.32365471999999995  1.0000
  Se  Se1172    1.0  0.2236842106578947  0.8712121211363637  0.6763452799999999  1.0000
  Se  Se1173    1.0  0.21052631578947367  0.8636363636363638  0.0  1.0000
  In  In783     1.0  0.21052631592105261  0.8939393938636365  0.1896293  1.0000
  Se  Se1174    1.0  0.21052631592105261  0.8939393938636365  0.6763452799999999  1.0000
  In  In784     1.0  0.22368421039473682  0.9015151515909092  0.8103706999999999  1.0000
  Se  Se1175    1.0  0.22368421039473682  0.9015151515909092  0.32365471999999995  1.0000
  Se  Se1176    1.0  0.22368421052631576  0.8863636363636366  0.0  1.0000
  In  In785     1.0  0.21052631565789473  0.9242424243181819  0.8103706999999999  1.0000
  In  In786     1.0  0.2236842106578947  0.9166666665909091  0.1896293  1.0000
  Se  Se1177    1.0  0.21052631565789473  0.9242424243181819  0.32365471999999995  1.0000
  Se  Se1178    1.0  0.2236842106578947  0.9166666665909091  0.6763452799999999  1.0000
  Se  Se1179    1.0  0.21052631578947367  0.9090909090909092  0.0  1.0000
  In  In787     1.0  0.21052631592105261  0.9393939393181818  0.1896293  1.0000
  Se  Se1180    1.0  0.21052631592105261  0.9393939393181818  0.6763452799999999  1.0000
  In  In788     1.0  0.22368421039473682  0.9469696970454545  0.8103706999999999  1.0000
  Se  Se1181    1.0  0.22368421039473682  0.9469696970454545  0.32365471999999995  1.0000
  Se  Se1182    1.0  0.22368421052631576  0.9318181818181819  0.0  1.0000
  In  In789     1.0  0.21052631565789473  0.9696969697727275  0.8103706999999999  1.0000
  In  In790     1.0  0.2236842106578947  0.9621212120454546  0.1896293  1.0000
  Se  Se1183    1.0  0.21052631565789473  0.9696969697727275  0.32365471999999995  1.0000
  Se  Se1184    1.0  0.2236842106578947  0.9621212120454546  0.6763452799999999  1.0000
  Se  Se1185    1.0  0.21052631578947367  0.9545454545454547  0.0  1.0000
  In  In791     1.0  0.21052631592105261  0.9848484847727275  0.1896293  1.0000
  Se  Se1186    1.0  0.21052631592105261  0.9848484847727275  0.6763452799999999  1.0000
  In  In792     1.0  0.22368421039473682  0.9924242425  0.8103706999999999  1.0000
  Se  Se1187    1.0  0.22368421039473682  0.9924242425  0.32365471999999995  1.0000
  Se  Se1188    1.0  0.22368421052631576  0.9772727272727274  0.0  1.0000
  In  In793     1.0  0.2368421051315789  0.01515151522727273  0.8103706999999999  1.0000
  In  In794     1.0  0.2500000001315789  0.0075757575  0.1896293  1.0000
  Se  Se1189    1.0  0.2368421051315789  0.01515151522727273  0.32365471999999995  1.0000
  Se  Se1190    1.0  0.2500000001315789  0.0075757575  0.6763452799999999  1.0000
  Se  Se1191    1.0  0.23684210526315785  0.0  0.0  1.0000
  In  In795     1.0  0.2368421053947368  0.030303030227272734  0.1896293  1.0000
  Se  Se1192    1.0  0.2368421053947368  0.030303030227272734  0.6763452799999999  1.0000
  In  In796     1.0  0.249999999868421  0.03787878795454546  0.8103706999999999  1.0000
  Se  Se1193    1.0  0.249999999868421  0.03787878795454546  0.32365471999999995  1.0000
  Se  Se1194    1.0  0.24999999999999994  0.022727272727272728  0.0  1.0000
  In  In797     1.0  0.2368421051315789  0.06060606068181818  0.8103706999999999  1.0000
  In  In798     1.0  0.2500000001315789  0.05303030295454546  0.1896293  1.0000
  Se  Se1195    1.0  0.2368421051315789  0.06060606068181818  0.32365471999999995  1.0000
  Se  Se1196    1.0  0.2500000001315789  0.05303030295454546  0.6763452799999999  1.0000
  Se  Se1197    1.0  0.23684210526315785  0.045454545454545456  0.0  1.0000
  In  In799     1.0  0.2368421053947368  0.07575757568181819  0.1896293  1.0000
  Se  Se1198    1.0  0.2368421053947368  0.07575757568181819  0.6763452799999999  1.0000
  In  In800     1.0  0.249999999868421  0.08333333340909092  0.8103706999999999  1.0000
  Se  Se1199    1.0  0.249999999868421  0.08333333340909092  0.32365471999999995  1.0000
  Se  Se1200    1.0  0.24999999999999994  0.06818181818181819  0.0  1.0000
  In  In801     1.0  0.2368421051315789  0.10606060613636366  0.8103706999999999  1.0000
  In  In802     1.0  0.2500000001315789  0.09848484840909091  0.1896293  1.0000
  Se  Se1201    1.0  0.2368421051315789  0.10606060613636366  0.32365471999999995  1.0000
  Se  Se1202    1.0  0.2500000001315789  0.09848484840909091  0.6763452799999999  1.0000
  Se  Se1203    1.0  0.23684210526315785  0.09090909090909091  0.0  1.0000
  In  In803     1.0  0.2368421053947368  0.12121212113636365  0.1896293  1.0000
  Se  Se1204    1.0  0.2368421053947368  0.12121212113636365  0.6763452799999999  1.0000
  In  In804     1.0  0.249999999868421  0.12878787886363638  0.8103706999999999  1.0000
  Se  Se1205    1.0  0.249999999868421  0.12878787886363638  0.32365471999999995  1.0000
  Se  Se1206    1.0  0.24999999999999994  0.11363636363636365  0.0  1.0000
  In  In805     1.0  0.2368421051315789  0.15151515159090911  0.8103706999999999  1.0000
  In  In806     1.0  0.2500000001315789  0.1439393938636364  0.1896293  1.0000
  Se  Se1207    1.0  0.2368421051315789  0.15151515159090911  0.32365471999999995  1.0000
  Se  Se1208    1.0  0.2500000001315789  0.1439393938636364  0.6763452799999999  1.0000
  Se  Se1209    1.0  0.23684210526315785  0.13636363636363638  0.0  1.0000
  In  In807     1.0  0.2368421053947368  0.16666666659090912  0.1896293  1.0000
  Se  Se1210    1.0  0.2368421053947368  0.16666666659090912  0.6763452799999999  1.0000
  In  In808     1.0  0.249999999868421  0.17424242431818185  0.8103706999999999  1.0000
  Se  Se1211    1.0  0.249999999868421  0.17424242431818185  0.32365471999999995  1.0000
  Se  Se1212    1.0  0.24999999999999994  0.15909090909090912  0.0  1.0000
  In  In809     1.0  0.2368421051315789  0.19696969704545458  0.8103706999999999  1.0000
  In  In810     1.0  0.2500000001315789  0.18939393931818185  0.1896293  1.0000
  Se  Se1213    1.0  0.2368421051315789  0.19696969704545458  0.32365471999999995  1.0000
  Se  Se1214    1.0  0.2500000001315789  0.18939393931818185  0.6763452799999999  1.0000
  Se  Se1215    1.0  0.23684210526315785  0.18181818181818182  0.0  1.0000
  In  In811     1.0  0.2368421053947368  0.21212121204545456  0.1896293  1.0000
  Se  Se1216    1.0  0.2368421053947368  0.21212121204545456  0.6763452799999999  1.0000
  In  In812     1.0  0.249999999868421  0.21969696977272726  0.8103706999999999  1.0000
  Se  Se1217    1.0  0.249999999868421  0.21969696977272726  0.32365471999999995  1.0000
  Se  Se1218    1.0  0.24999999999999994  0.20454545454545456  0.0  1.0000
  In  In813     1.0  0.2368421051315789  0.2424242425  0.8103706999999999  1.0000
  In  In814     1.0  0.2500000001315789  0.2348484847727273  0.1896293  1.0000
  Se  Se1219    1.0  0.2368421051315789  0.2424242425  0.32365471999999995  1.0000
  Se  Se1220    1.0  0.2500000001315789  0.2348484847727273  0.6763452799999999  1.0000
  Se  Se1221    1.0  0.23684210526315785  0.2272727272727273  0.0  1.0000
  In  In815     1.0  0.2368421053947368  0.2575757575  0.1896293  1.0000
  Se  Se1222    1.0  0.2368421053947368  0.2575757575  0.6763452799999999  1.0000
  In  In816     1.0  0.249999999868421  0.2651515152272727  0.8103706999999999  1.0000
  Se  Se1223    1.0  0.249999999868421  0.2651515152272727  0.32365471999999995  1.0000
  Se  Se1224    1.0  0.24999999999999994  0.25  0.0  1.0000
  In  In817     1.0  0.2368421051315789  0.28787878795454547  0.8103706999999999  1.0000
  In  In818     1.0  0.2500000001315789  0.28030303022727276  0.1896293  1.0000
  Se  Se1225    1.0  0.2368421051315789  0.28787878795454547  0.32365471999999995  1.0000
  Se  Se1226    1.0  0.2500000001315789  0.28030303022727276  0.6763452799999999  1.0000
  Se  Se1227    1.0  0.23684210526315785  0.27272727272727276  0.0  1.0000
  In  In819     1.0  0.2368421053947368  0.3030303029545455  0.1896293  1.0000
  Se  Se1228    1.0  0.2368421053947368  0.3030303029545455  0.6763452799999999  1.0000
  In  In820     1.0  0.249999999868421  0.3106060606818183  0.8103706999999999  1.0000
  Se  Se1229    1.0  0.249999999868421  0.3106060606818183  0.32365471999999995  1.0000
  Se  Se1230    1.0  0.24999999999999994  0.2954545454545455  0.0  1.0000
  In  In821     1.0  0.2368421051315789  0.33333333340909094  0.8103706999999999  1.0000
  In  In822     1.0  0.2500000001315789  0.32575757568181823  0.1896293  1.0000
  Se  Se1231    1.0  0.2368421051315789  0.33333333340909094  0.32365471999999995  1.0000
  Se  Se1232    1.0  0.2500000001315789  0.32575757568181823  0.6763452799999999  1.0000
  Se  Se1233    1.0  0.23684210526315785  0.31818181818181823  0.0  1.0000
  In  In823     1.0  0.2368421053947368  0.34848484840909094  0.1896293  1.0000
  Se  Se1234    1.0  0.2368421053947368  0.34848484840909094  0.6763452799999999  1.0000
  In  In824     1.0  0.249999999868421  0.3560606061363637  0.8103706999999999  1.0000
  Se  Se1235    1.0  0.249999999868421  0.3560606061363637  0.32365471999999995  1.0000
  Se  Se1236    1.0  0.24999999999999994  0.34090909090909094  0.0  1.0000
  In  In825     1.0  0.2368421051315789  0.3787878788636364  0.8103706999999999  1.0000
  In  In826     1.0  0.2500000001315789  0.3712121211363637  0.1896293  1.0000
  Se  Se1237    1.0  0.2368421051315789  0.3787878788636364  0.32365471999999995  1.0000
  Se  Se1238    1.0  0.2500000001315789  0.3712121211363637  0.6763452799999999  1.0000
  Se  Se1239    1.0  0.23684210526315785  0.36363636363636365  0.0  1.0000
  In  In827     1.0  0.2368421053947368  0.3939393938636364  0.1896293  1.0000
  Se  Se1240    1.0  0.2368421053947368  0.3939393938636364  0.6763452799999999  1.0000
  In  In828     1.0  0.249999999868421  0.40151515159090917  0.8103706999999999  1.0000
  Se  Se1241    1.0  0.249999999868421  0.40151515159090917  0.32365471999999995  1.0000
  Se  Se1242    1.0  0.24999999999999994  0.3863636363636364  0.0  1.0000
  In  In829     1.0  0.2368421051315789  0.4242424243181818  0.8103706999999999  1.0000
  In  In830     1.0  0.2500000001315789  0.4166666665909091  0.1896293  1.0000
  Se  Se1243    1.0  0.2368421051315789  0.4242424243181818  0.32365471999999995  1.0000
  Se  Se1244    1.0  0.2500000001315789  0.4166666665909091  0.6763452799999999  1.0000
  Se  Se1245    1.0  0.23684210526315785  0.4090909090909091  0.0  1.0000
  In  In831     1.0  0.2368421053947368  0.4393939393181818  0.1896293  1.0000
  Se  Se1246    1.0  0.2368421053947368  0.4393939393181818  0.6763452799999999  1.0000
  In  In832     1.0  0.249999999868421  0.4469696970454546  0.8103706999999999  1.0000
  Se  Se1247    1.0  0.249999999868421  0.4469696970454546  0.32365471999999995  1.0000
  Se  Se1248    1.0  0.24999999999999994  0.4318181818181819  0.0  1.0000
  In  In833     1.0  0.2368421051315789  0.4696969697727273  0.8103706999999999  1.0000
  In  In834     1.0  0.2500000001315789  0.46212121204545453  0.1896293  1.0000
  Se  Se1249    1.0  0.2368421051315789  0.4696969697727273  0.32365471999999995  1.0000
  Se  Se1250    1.0  0.2500000001315789  0.46212121204545453  0.6763452799999999  1.0000
  Se  Se1251    1.0  0.23684210526315785  0.4545454545454546  0.0  1.0000
  In  In835     1.0  0.2368421053947368  0.4848484847727273  0.1896293  1.0000
  Se  Se1252    1.0  0.2368421053947368  0.4848484847727273  0.6763452799999999  1.0000
  In  In836     1.0  0.249999999868421  0.49242424250000005  0.8103706999999999  1.0000
  Se  Se1253    1.0  0.249999999868421  0.49242424250000005  0.32365471999999995  1.0000
  Se  Se1254    1.0  0.24999999999999994  0.47727272727272735  0.0  1.0000
  In  In837     1.0  0.2368421051315789  0.5151515152272728  0.8103706999999999  1.0000
  In  In838     1.0  0.2500000001315789  0.5075757575  0.1896293  1.0000
  Se  Se1255    1.0  0.2368421051315789  0.5151515152272728  0.32365471999999995  1.0000
  Se  Se1256    1.0  0.2500000001315789  0.5075757575  0.6763452799999999  1.0000
  Se  Se1257    1.0  0.23684210526315785  0.5  0.0  1.0000
  In  In839     1.0  0.2368421053947368  0.5303030302272728  0.1896293  1.0000
  Se  Se1258    1.0  0.2368421053947368  0.5303030302272728  0.6763452799999999  1.0000
  In  In840     1.0  0.249999999868421  0.5378787879545455  0.8103706999999999  1.0000
  Se  Se1259    1.0  0.249999999868421  0.5378787879545455  0.32365471999999995  1.0000
  Se  Se1260    1.0  0.24999999999999994  0.5227272727272728  0.0  1.0000
  In  In841     1.0  0.2368421051315789  0.5606060606818183  0.8103706999999999  1.0000
  In  In842     1.0  0.2500000001315789  0.5530303029545455  0.1896293  1.0000
  Se  Se1261    1.0  0.2368421051315789  0.5606060606818183  0.32365471999999995  1.0000
  Se  Se1262    1.0  0.2500000001315789  0.5530303029545455  0.6763452799999999  1.0000
  Se  Se1263    1.0  0.23684210526315785  0.5454545454545455  0.0  1.0000
  In  In843     1.0  0.2368421053947368  0.5757575756818183  0.1896293  1.0000
  Se  Se1264    1.0  0.2368421053947368  0.5757575756818183  0.6763452799999999  1.0000
  In  In844     1.0  0.249999999868421  0.583333333409091  0.8103706999999999  1.0000
  Se  Se1265    1.0  0.249999999868421  0.583333333409091  0.32365471999999995  1.0000
  Se  Se1266    1.0  0.24999999999999994  0.5681818181818183  0.0  1.0000
  In  In845     1.0  0.2368421051315789  0.6060606061363637  0.8103706999999999  1.0000
  In  In846     1.0  0.2500000001315789  0.598484848409091  0.1896293  1.0000
  Se  Se1267    1.0  0.2368421051315789  0.6060606061363637  0.32365471999999995  1.0000
  Se  Se1268    1.0  0.2500000001315789  0.598484848409091  0.6763452799999999  1.0000
  Se  Se1269    1.0  0.23684210526315785  0.590909090909091  0.0  1.0000
  In  In847     1.0  0.2368421053947368  0.6212121211363637  0.1896293  1.0000
  Se  Se1270    1.0  0.2368421053947368  0.6212121211363637  0.6763452799999999  1.0000
  In  In848     1.0  0.249999999868421  0.6287878788636365  0.8103706999999999  1.0000
  Se  Se1271    1.0  0.249999999868421  0.6287878788636365  0.32365471999999995  1.0000
  Se  Se1272    1.0  0.24999999999999994  0.6136363636363638  0.0  1.0000
  In  In849     1.0  0.2368421051315789  0.6515151515909091  0.8103706999999999  1.0000
  In  In850     1.0  0.2500000001315789  0.6439393938636364  0.1896293  1.0000
  Se  Se1273    1.0  0.2368421051315789  0.6515151515909091  0.32365471999999995  1.0000
  Se  Se1274    1.0  0.2500000001315789  0.6439393938636364  0.6763452799999999  1.0000
  Se  Se1275    1.0  0.23684210526315785  0.6363636363636365  0.0  1.0000
  In  In851     1.0  0.2368421053947368  0.6666666665909092  0.1896293  1.0000
  Se  Se1276    1.0  0.2368421053947368  0.6666666665909092  0.6763452799999999  1.0000
  In  In852     1.0  0.249999999868421  0.6742424243181819  0.8103706999999999  1.0000
  Se  Se1277    1.0  0.249999999868421  0.6742424243181819  0.32365471999999995  1.0000
  Se  Se1278    1.0  0.24999999999999994  0.6590909090909092  0.0  1.0000
  In  In853     1.0  0.2368421051315789  0.6969696970454546  0.8103706999999999  1.0000
  In  In854     1.0  0.2500000001315789  0.6893939393181818  0.1896293  1.0000
  Se  Se1279    1.0  0.2368421051315789  0.6969696970454546  0.32365471999999995  1.0000
  Se  Se1280    1.0  0.2500000001315789  0.6893939393181818  0.6763452799999999  1.0000
  Se  Se1281    1.0  0.23684210526315785  0.6818181818181819  0.0  1.0000
  In  In855     1.0  0.2368421053947368  0.7121212120454546  0.1896293  1.0000
  Se  Se1282    1.0  0.2368421053947368  0.7121212120454546  0.6763452799999999  1.0000
  In  In856     1.0  0.249999999868421  0.7196969697727273  0.8103706999999999  1.0000
  Se  Se1283    1.0  0.249999999868421  0.7196969697727273  0.32365471999999995  1.0000
  Se  Se1284    1.0  0.24999999999999994  0.7045454545454547  0.0  1.0000
  In  In857     1.0  0.2368421051315789  0.7424242425  0.8103706999999999  1.0000
  In  In858     1.0  0.2500000001315789  0.7348484847727274  0.1896293  1.0000
  Se  Se1285    1.0  0.2368421051315789  0.7424242425  0.32365471999999995  1.0000
  Se  Se1286    1.0  0.2500000001315789  0.7348484847727274  0.6763452799999999  1.0000
  Se  Se1287    1.0  0.23684210526315785  0.7272727272727273  0.0  1.0000
  In  In859     1.0  0.2368421053947368  0.7575757575000001  0.1896293  1.0000
  Se  Se1288    1.0  0.2368421053947368  0.7575757575000001  0.6763452799999999  1.0000
  In  In860     1.0  0.249999999868421  0.7651515152272729  0.8103706999999999  1.0000
  Se  Se1289    1.0  0.249999999868421  0.7651515152272729  0.32365471999999995  1.0000
  Se  Se1290    1.0  0.24999999999999994  0.7500000000000001  0.0  1.0000
  In  In861     1.0  0.2368421051315789  0.7878787879545455  0.8103706999999999  1.0000
  In  In862     1.0  0.2500000001315789  0.7803030302272728  0.1896293  1.0000
  Se  Se1291    1.0  0.2368421051315789  0.7878787879545455  0.32365471999999995  1.0000
  Se  Se1292    1.0  0.2500000001315789  0.7803030302272728  0.6763452799999999  1.0000
  Se  Se1293    1.0  0.23684210526315785  0.7727272727272728  0.0  1.0000
  In  In863     1.0  0.2368421053947368  0.8030303029545455  0.1896293  1.0000
  Se  Se1294    1.0  0.2368421053947368  0.8030303029545455  0.6763452799999999  1.0000
  In  In864     1.0  0.249999999868421  0.8106060606818183  0.8103706999999999  1.0000
  Se  Se1295    1.0  0.249999999868421  0.8106060606818183  0.32365471999999995  1.0000
  Se  Se1296    1.0  0.24999999999999994  0.7954545454545455  0.0  1.0000
  In  In865     1.0  0.2368421051315789  0.833333333409091  0.8103706999999999  1.0000
  In  In866     1.0  0.2500000001315789  0.8257575756818182  0.1896293  1.0000
  Se  Se1297    1.0  0.2368421051315789  0.833333333409091  0.32365471999999995  1.0000
  Se  Se1298    1.0  0.2500000001315789  0.8257575756818182  0.6763452799999999  1.0000
  Se  Se1299    1.0  0.23684210526315785  0.8181818181818182  0.0  1.0000
  In  In867     1.0  0.2368421053947368  0.848484848409091  0.1896293  1.0000
  Se  Se1300    1.0  0.2368421053947368  0.848484848409091  0.6763452799999999  1.0000
  In  In868     1.0  0.249999999868421  0.8560606061363636  0.8103706999999999  1.0000
  Se  Se1301    1.0  0.249999999868421  0.8560606061363636  0.32365471999999995  1.0000
  Se  Se1302    1.0  0.24999999999999994  0.840909090909091  0.0  1.0000
  In  In869     1.0  0.2368421051315789  0.8787878788636366  0.8103706999999999  1.0000
  In  In870     1.0  0.2500000001315789  0.8712121211363637  0.1896293  1.0000
  Se  Se1303    1.0  0.2368421051315789  0.8787878788636366  0.32365471999999995  1.0000
  Se  Se1304    1.0  0.2500000001315789  0.8712121211363637  0.6763452799999999  1.0000
  Se  Se1305    1.0  0.23684210526315785  0.8636363636363638  0.0  1.0000
  In  In871     1.0  0.2368421053947368  0.8939393938636365  0.1896293  1.0000
  Se  Se1306    1.0  0.2368421053947368  0.8939393938636365  0.6763452799999999  1.0000
  In  In872     1.0  0.249999999868421  0.9015151515909092  0.8103706999999999  1.0000
  Se  Se1307    1.0  0.249999999868421  0.9015151515909092  0.32365471999999995  1.0000
  Se  Se1308    1.0  0.24999999999999994  0.8863636363636366  0.0  1.0000
  In  In873     1.0  0.2368421051315789  0.9242424243181819  0.8103706999999999  1.0000
  In  In874     1.0  0.2500000001315789  0.9166666665909091  0.1896293  1.0000
  Se  Se1309    1.0  0.2368421051315789  0.9242424243181819  0.32365471999999995  1.0000
  Se  Se1310    1.0  0.2500000001315789  0.9166666665909091  0.6763452799999999  1.0000
  Se  Se1311    1.0  0.23684210526315785  0.9090909090909092  0.0  1.0000
  In  In875     1.0  0.2368421053947368  0.9393939393181818  0.1896293  1.0000
  Se  Se1312    1.0  0.2368421053947368  0.9393939393181818  0.6763452799999999  1.0000
  In  In876     1.0  0.249999999868421  0.9469696970454545  0.8103706999999999  1.0000
  Se  Se1313    1.0  0.249999999868421  0.9469696970454545  0.32365471999999995  1.0000
  Se  Se1314    1.0  0.24999999999999994  0.9318181818181819  0.0  1.0000
  In  In877     1.0  0.2368421051315789  0.9696969697727275  0.8103706999999999  1.0000
  In  In878     1.0  0.2500000001315789  0.9621212120454546  0.1896293  1.0000
  Se  Se1315    1.0  0.2368421051315789  0.9696969697727275  0.32365471999999995  1.0000
  Se  Se1316    1.0  0.2500000001315789  0.9621212120454546  0.6763452799999999  1.0000
  Se  Se1317    1.0  0.23684210526315785  0.9545454545454547  0.0  1.0000
  In  In879     1.0  0.2368421053947368  0.9848484847727275  0.1896293  1.0000
  Se  Se1318    1.0  0.2368421053947368  0.9848484847727275  0.6763452799999999  1.0000
  In  In880     1.0  0.249999999868421  0.9924242425  0.8103706999999999  1.0000
  Se  Se1319    1.0  0.249999999868421  0.9924242425  0.32365471999999995  1.0000
  Se  Se1320    1.0  0.24999999999999994  0.9772727272727274  0.0  1.0000
  In  In881     1.0  0.2631578946052632  0.01515151522727273  0.8103706999999999  1.0000
  In  In882     1.0  0.27631578960526315  0.0075757575  0.1896293  1.0000
  Se  Se1321    1.0  0.2631578946052632  0.01515151522727273  0.32365471999999995  1.0000
  Se  Se1322    1.0  0.27631578960526315  0.0075757575  0.6763452799999999  1.0000
  Se  Se1323    1.0  0.2631578947368421  0.0  0.0  1.0000
  In  In883     1.0  0.26315789486842106  0.030303030227272734  0.1896293  1.0000
  Se  Se1324    1.0  0.26315789486842106  0.030303030227272734  0.6763452799999999  1.0000
  In  In884     1.0  0.27631578934210527  0.03787878795454546  0.8103706999999999  1.0000
  Se  Se1325    1.0  0.27631578934210527  0.03787878795454546  0.32365471999999995  1.0000
  Se  Se1326    1.0  0.2763157894736842  0.022727272727272728  0.0  1.0000
  In  In885     1.0  0.2631578946052632  0.06060606068181818  0.8103706999999999  1.0000
  In  In886     1.0  0.27631578960526315  0.05303030295454546  0.1896293  1.0000
  Se  Se1327    1.0  0.2631578946052632  0.06060606068181818  0.32365471999999995  1.0000
  Se  Se1328    1.0  0.27631578960526315  0.05303030295454546  0.6763452799999999  1.0000
  Se  Se1329    1.0  0.2631578947368421  0.045454545454545456  0.0  1.0000
  In  In887     1.0  0.26315789486842106  0.07575757568181819  0.1896293  1.0000
  Se  Se1330    1.0  0.26315789486842106  0.07575757568181819  0.6763452799999999  1.0000
  In  In888     1.0  0.27631578934210527  0.08333333340909092  0.8103706999999999  1.0000
  Se  Se1331    1.0  0.27631578934210527  0.08333333340909092  0.32365471999999995  1.0000
  Se  Se1332    1.0  0.2763157894736842  0.06818181818181819  0.0  1.0000
  In  In889     1.0  0.2631578946052632  0.10606060613636366  0.8103706999999999  1.0000
  In  In890     1.0  0.27631578960526315  0.09848484840909091  0.1896293  1.0000
  Se  Se1333    1.0  0.2631578946052632  0.10606060613636366  0.32365471999999995  1.0000
  Se  Se1334    1.0  0.27631578960526315  0.09848484840909091  0.6763452799999999  1.0000
  Se  Se1335    1.0  0.2631578947368421  0.09090909090909091  0.0  1.0000
  In  In891     1.0  0.26315789486842106  0.12121212113636365  0.1896293  1.0000
  Se  Se1336    1.0  0.26315789486842106  0.12121212113636365  0.6763452799999999  1.0000
  In  In892     1.0  0.27631578934210527  0.12878787886363638  0.8103706999999999  1.0000
  Se  Se1337    1.0  0.27631578934210527  0.12878787886363638  0.32365471999999995  1.0000
  Se  Se1338    1.0  0.2763157894736842  0.11363636363636365  0.0  1.0000
  In  In893     1.0  0.2631578946052632  0.15151515159090911  0.8103706999999999  1.0000
  In  In894     1.0  0.27631578960526315  0.1439393938636364  0.1896293  1.0000
  Se  Se1339    1.0  0.2631578946052632  0.15151515159090911  0.32365471999999995  1.0000
  Se  Se1340    1.0  0.27631578960526315  0.1439393938636364  0.6763452799999999  1.0000
  Se  Se1341    1.0  0.2631578947368421  0.13636363636363638  0.0  1.0000
  In  In895     1.0  0.26315789486842106  0.16666666659090912  0.1896293  1.0000
  Se  Se1342    1.0  0.26315789486842106  0.16666666659090912  0.6763452799999999  1.0000
  In  In896     1.0  0.27631578934210527  0.17424242431818185  0.8103706999999999  1.0000
  Se  Se1343    1.0  0.27631578934210527  0.17424242431818185  0.32365471999999995  1.0000
  Se  Se1344    1.0  0.2763157894736842  0.15909090909090912  0.0  1.0000
  In  In897     1.0  0.2631578946052632  0.19696969704545458  0.8103706999999999  1.0000
  In  In898     1.0  0.27631578960526315  0.18939393931818185  0.1896293  1.0000
  Se  Se1345    1.0  0.2631578946052632  0.19696969704545458  0.32365471999999995  1.0000
  Se  Se1346    1.0  0.27631578960526315  0.18939393931818185  0.6763452799999999  1.0000
  Se  Se1347    1.0  0.2631578947368421  0.18181818181818182  0.0  1.0000
  In  In899     1.0  0.26315789486842106  0.21212121204545456  0.1896293  1.0000
  Se  Se1348    1.0  0.26315789486842106  0.21212121204545456  0.6763452799999999  1.0000
  In  In900     1.0  0.27631578934210527  0.21969696977272726  0.8103706999999999  1.0000
  Se  Se1349    1.0  0.27631578934210527  0.21969696977272726  0.32365471999999995  1.0000
  Se  Se1350    1.0  0.2763157894736842  0.20454545454545456  0.0  1.0000
  In  In901     1.0  0.2631578946052632  0.2424242425  0.8103706999999999  1.0000
  In  In902     1.0  0.27631578960526315  0.2348484847727273  0.1896293  1.0000
  Se  Se1351    1.0  0.2631578946052632  0.2424242425  0.32365471999999995  1.0000
  Se  Se1352    1.0  0.27631578960526315  0.2348484847727273  0.6763452799999999  1.0000
  Se  Se1353    1.0  0.2631578947368421  0.2272727272727273  0.0  1.0000
  In  In903     1.0  0.26315789486842106  0.2575757575  0.1896293  1.0000
  Se  Se1354    1.0  0.26315789486842106  0.2575757575  0.6763452799999999  1.0000
  In  In904     1.0  0.27631578934210527  0.2651515152272727  0.8103706999999999  1.0000
  Se  Se1355    1.0  0.27631578934210527  0.2651515152272727  0.32365471999999995  1.0000
  Se  Se1356    1.0  0.2763157894736842  0.25  0.0  1.0000
  In  In905     1.0  0.2631578946052632  0.28787878795454547  0.8103706999999999  1.0000
  In  In906     1.0  0.27631578960526315  0.28030303022727276  0.1896293  1.0000
  Se  Se1357    1.0  0.2631578946052632  0.28787878795454547  0.32365471999999995  1.0000
  Se  Se1358    1.0  0.27631578960526315  0.28030303022727276  0.6763452799999999  1.0000
  Se  Se1359    1.0  0.2631578947368421  0.27272727272727276  0.0  1.0000
  In  In907     1.0  0.26315789486842106  0.3030303029545455  0.1896293  1.0000
  Se  Se1360    1.0  0.26315789486842106  0.3030303029545455  0.6763452799999999  1.0000
  In  In908     1.0  0.27631578934210527  0.3106060606818183  0.8103706999999999  1.0000
  Se  Se1361    1.0  0.27631578934210527  0.3106060606818183  0.32365471999999995  1.0000
  Se  Se1362    1.0  0.2763157894736842  0.2954545454545455  0.0  1.0000
  In  In909     1.0  0.2631578946052632  0.33333333340909094  0.8103706999999999  1.0000
  In  In910     1.0  0.27631578960526315  0.32575757568181823  0.1896293  1.0000
  Se  Se1363    1.0  0.2631578946052632  0.33333333340909094  0.32365471999999995  1.0000
  Se  Se1364    1.0  0.27631578960526315  0.32575757568181823  0.6763452799999999  1.0000
  Se  Se1365    1.0  0.2631578947368421  0.31818181818181823  0.0  1.0000
  In  In911     1.0  0.26315789486842106  0.34848484840909094  0.1896293  1.0000
  Se  Se1366    1.0  0.26315789486842106  0.34848484840909094  0.6763452799999999  1.0000
  In  In912     1.0  0.27631578934210527  0.3560606061363637  0.8103706999999999  1.0000
  Se  Se1367    1.0  0.27631578934210527  0.3560606061363637  0.32365471999999995  1.0000
  Se  Se1368    1.0  0.2763157894736842  0.34090909090909094  0.0  1.0000
  In  In913     1.0  0.2631578946052632  0.3787878788636364  0.8103706999999999  1.0000
  In  In914     1.0  0.27631578960526315  0.3712121211363637  0.1896293  1.0000
  Se  Se1369    1.0  0.2631578946052632  0.3787878788636364  0.32365471999999995  1.0000
  Se  Se1370    1.0  0.27631578960526315  0.3712121211363637  0.6763452799999999  1.0000
  Se  Se1371    1.0  0.2631578947368421  0.36363636363636365  0.0  1.0000
  In  In915     1.0  0.26315789486842106  0.3939393938636364  0.1896293  1.0000
  Se  Se1372    1.0  0.26315789486842106  0.3939393938636364  0.6763452799999999  1.0000
  In  In916     1.0  0.27631578934210527  0.40151515159090917  0.8103706999999999  1.0000
  Se  Se1373    1.0  0.27631578934210527  0.40151515159090917  0.32365471999999995  1.0000
  Se  Se1374    1.0  0.2763157894736842  0.3863636363636364  0.0  1.0000
  In  In917     1.0  0.2631578946052632  0.4242424243181818  0.8103706999999999  1.0000
  In  In918     1.0  0.27631578960526315  0.4166666665909091  0.1896293  1.0000
  Se  Se1375    1.0  0.2631578946052632  0.4242424243181818  0.32365471999999995  1.0000
  Se  Se1376    1.0  0.27631578960526315  0.4166666665909091  0.6763452799999999  1.0000
  Se  Se1377    1.0  0.2631578947368421  0.4090909090909091  0.0  1.0000
  In  In919     1.0  0.26315789486842106  0.4393939393181818  0.1896293  1.0000
  Se  Se1378    1.0  0.26315789486842106  0.4393939393181818  0.6763452799999999  1.0000
  In  In920     1.0  0.27631578934210527  0.4469696970454546  0.8103706999999999  1.0000
  Se  Se1379    1.0  0.27631578934210527  0.4469696970454546  0.32365471999999995  1.0000
  Se  Se1380    1.0  0.2763157894736842  0.4318181818181819  0.0  1.0000
  In  In921     1.0  0.2631578946052632  0.4696969697727273  0.8103706999999999  1.0000
  In  In922     1.0  0.27631578960526315  0.46212121204545453  0.1896293  1.0000
  Se  Se1381    1.0  0.2631578946052632  0.4696969697727273  0.32365471999999995  1.0000
  Se  Se1382    1.0  0.27631578960526315  0.46212121204545453  0.6763452799999999  1.0000
  Se  Se1383    1.0  0.2631578947368421  0.4545454545454546  0.0  1.0000
  In  In923     1.0  0.26315789486842106  0.4848484847727273  0.1896293  1.0000
  Se  Se1384    1.0  0.26315789486842106  0.4848484847727273  0.6763452799999999  1.0000
  In  In924     1.0  0.27631578934210527  0.49242424250000005  0.8103706999999999  1.0000
  Se  Se1385    1.0  0.27631578934210527  0.49242424250000005  0.32365471999999995  1.0000
  Se  Se1386    1.0  0.2763157894736842  0.47727272727272735  0.0  1.0000
  In  In925     1.0  0.2631578946052632  0.5151515152272728  0.8103706999999999  1.0000
  In  In926     1.0  0.27631578960526315  0.5075757575  0.1896293  1.0000
  Se  Se1387    1.0  0.2631578946052632  0.5151515152272728  0.32365471999999995  1.0000
  Se  Se1388    1.0  0.27631578960526315  0.5075757575  0.6763452799999999  1.0000
  Se  Se1389    1.0  0.2631578947368421  0.5  0.0  1.0000
  In  In927     1.0  0.26315789486842106  0.5303030302272728  0.1896293  1.0000
  Se  Se1390    1.0  0.26315789486842106  0.5303030302272728  0.6763452799999999  1.0000
  In  In928     1.0  0.27631578934210527  0.5378787879545455  0.8103706999999999  1.0000
  Se  Se1391    1.0  0.27631578934210527  0.5378787879545455  0.32365471999999995  1.0000
  Se  Se1392    1.0  0.2763157894736842  0.5227272727272728  0.0  1.0000
  In  In929     1.0  0.2631578946052632  0.5606060606818183  0.8103706999999999  1.0000
  In  In930     1.0  0.27631578960526315  0.5530303029545455  0.1896293  1.0000
  Se  Se1393    1.0  0.2631578946052632  0.5606060606818183  0.32365471999999995  1.0000
  Se  Se1394    1.0  0.27631578960526315  0.5530303029545455  0.6763452799999999  1.0000
  Se  Se1395    1.0  0.2631578947368421  0.5454545454545455  0.0  1.0000
  In  In931     1.0  0.26315789486842106  0.5757575756818183  0.1896293  1.0000
  Se  Se1396    1.0  0.26315789486842106  0.5757575756818183  0.6763452799999999  1.0000
  In  In932     1.0  0.27631578934210527  0.583333333409091  0.8103706999999999  1.0000
  Se  Se1397    1.0  0.27631578934210527  0.583333333409091  0.32365471999999995  1.0000
  Se  Se1398    1.0  0.2763157894736842  0.5681818181818183  0.0  1.0000
  In  In933     1.0  0.2631578946052632  0.6060606061363637  0.8103706999999999  1.0000
  In  In934     1.0  0.27631578960526315  0.598484848409091  0.1896293  1.0000
  Se  Se1399    1.0  0.2631578946052632  0.6060606061363637  0.32365471999999995  1.0000
  Se  Se1400    1.0  0.27631578960526315  0.598484848409091  0.6763452799999999  1.0000
  Se  Se1401    1.0  0.2631578947368421  0.590909090909091  0.0  1.0000
  In  In935     1.0  0.26315789486842106  0.6212121211363637  0.1896293  1.0000
  Se  Se1402    1.0  0.26315789486842106  0.6212121211363637  0.6763452799999999  1.0000
  In  In936     1.0  0.27631578934210527  0.6287878788636365  0.8103706999999999  1.0000
  Se  Se1403    1.0  0.27631578934210527  0.6287878788636365  0.32365471999999995  1.0000
  Se  Se1404    1.0  0.2763157894736842  0.6136363636363638  0.0  1.0000
  In  In937     1.0  0.2631578946052632  0.6515151515909091  0.8103706999999999  1.0000
  In  In938     1.0  0.27631578960526315  0.6439393938636364  0.1896293  1.0000
  Se  Se1405    1.0  0.2631578946052632  0.6515151515909091  0.32365471999999995  1.0000
  Se  Se1406    1.0  0.27631578960526315  0.6439393938636364  0.6763452799999999  1.0000
  Se  Se1407    1.0  0.2631578947368421  0.6363636363636365  0.0  1.0000
  In  In939     1.0  0.26315789486842106  0.6666666665909092  0.1896293  1.0000
  Se  Se1408    1.0  0.26315789486842106  0.6666666665909092  0.6763452799999999  1.0000
  In  In940     1.0  0.27631578934210527  0.6742424243181819  0.8103706999999999  1.0000
  Se  Se1409    1.0  0.27631578934210527  0.6742424243181819  0.32365471999999995  1.0000
  Se  Se1410    1.0  0.2763157894736842  0.6590909090909092  0.0  1.0000
  In  In941     1.0  0.2631578946052632  0.6969696970454546  0.8103706999999999  1.0000
  In  In942     1.0  0.27631578960526315  0.6893939393181818  0.1896293  1.0000
  Se  Se1411    1.0  0.2631578946052632  0.6969696970454546  0.32365471999999995  1.0000
  Se  Se1412    1.0  0.27631578960526315  0.6893939393181818  0.6763452799999999  1.0000
  Se  Se1413    1.0  0.2631578947368421  0.6818181818181819  0.0  1.0000
  In  In943     1.0  0.26315789486842106  0.7121212120454546  0.1896293  1.0000
  Se  Se1414    1.0  0.26315789486842106  0.7121212120454546  0.6763452799999999  1.0000
  In  In944     1.0  0.27631578934210527  0.7196969697727273  0.8103706999999999  1.0000
  Se  Se1415    1.0  0.27631578934210527  0.7196969697727273  0.32365471999999995  1.0000
  Se  Se1416    1.0  0.2763157894736842  0.7045454545454547  0.0  1.0000
  In  In945     1.0  0.2631578946052632  0.7424242425  0.8103706999999999  1.0000
  In  In946     1.0  0.27631578960526315  0.7348484847727274  0.1896293  1.0000
  Se  Se1417    1.0  0.2631578946052632  0.7424242425  0.32365471999999995  1.0000
  Se  Se1418    1.0  0.27631578960526315  0.7348484847727274  0.6763452799999999  1.0000
  Se  Se1419    1.0  0.2631578947368421  0.7272727272727273  0.0  1.0000
  In  In947     1.0  0.26315789486842106  0.7575757575000001  0.1896293  1.0000
  Se  Se1420    1.0  0.26315789486842106  0.7575757575000001  0.6763452799999999  1.0000
  In  In948     1.0  0.27631578934210527  0.7651515152272729  0.8103706999999999  1.0000
  Se  Se1421    1.0  0.27631578934210527  0.7651515152272729  0.32365471999999995  1.0000
  Se  Se1422    1.0  0.2763157894736842  0.7500000000000001  0.0  1.0000
  In  In949     1.0  0.2631578946052632  0.7878787879545455  0.8103706999999999  1.0000
  In  In950     1.0  0.27631578960526315  0.7803030302272728  0.1896293  1.0000
  Se  Se1423    1.0  0.2631578946052632  0.7878787879545455  0.32365471999999995  1.0000
  Se  Se1424    1.0  0.27631578960526315  0.7803030302272728  0.6763452799999999  1.0000
  Se  Se1425    1.0  0.2631578947368421  0.7727272727272728  0.0  1.0000
  In  In951     1.0  0.26315789486842106  0.8030303029545455  0.1896293  1.0000
  Se  Se1426    1.0  0.26315789486842106  0.8030303029545455  0.6763452799999999  1.0000
  In  In952     1.0  0.27631578934210527  0.8106060606818183  0.8103706999999999  1.0000
  Se  Se1427    1.0  0.27631578934210527  0.8106060606818183  0.32365471999999995  1.0000
  Se  Se1428    1.0  0.2763157894736842  0.7954545454545455  0.0  1.0000
  In  In953     1.0  0.2631578946052632  0.833333333409091  0.8103706999999999  1.0000
  In  In954     1.0  0.27631578960526315  0.8257575756818182  0.1896293  1.0000
  Se  Se1429    1.0  0.2631578946052632  0.833333333409091  0.32365471999999995  1.0000
  Se  Se1430    1.0  0.27631578960526315  0.8257575756818182  0.6763452799999999  1.0000
  Se  Se1431    1.0  0.2631578947368421  0.8181818181818182  0.0  1.0000
  In  In955     1.0  0.26315789486842106  0.848484848409091  0.1896293  1.0000
  Se  Se1432    1.0  0.26315789486842106  0.848484848409091  0.6763452799999999  1.0000
  In  In956     1.0  0.27631578934210527  0.8560606061363636  0.8103706999999999  1.0000
  Se  Se1433    1.0  0.27631578934210527  0.8560606061363636  0.32365471999999995  1.0000
  Se  Se1434    1.0  0.2763157894736842  0.840909090909091  0.0  1.0000
  In  In957     1.0  0.2631578946052632  0.8787878788636366  0.8103706999999999  1.0000
  In  In958     1.0  0.27631578960526315  0.8712121211363637  0.1896293  1.0000
  Se  Se1435    1.0  0.2631578946052632  0.8787878788636366  0.32365471999999995  1.0000
  Se  Se1436    1.0  0.27631578960526315  0.8712121211363637  0.6763452799999999  1.0000
  Se  Se1437    1.0  0.2631578947368421  0.8636363636363638  0.0  1.0000
  In  In959     1.0  0.26315789486842106  0.8939393938636365  0.1896293  1.0000
  Se  Se1438    1.0  0.26315789486842106  0.8939393938636365  0.6763452799999999  1.0000
  In  In960     1.0  0.27631578934210527  0.9015151515909092  0.8103706999999999  1.0000
  Se  Se1439    1.0  0.27631578934210527  0.9015151515909092  0.32365471999999995  1.0000
  Se  Se1440    1.0  0.2763157894736842  0.8863636363636366  0.0  1.0000
  In  In961     1.0  0.2631578946052632  0.9242424243181819  0.8103706999999999  1.0000
  In  In962     1.0  0.27631578960526315  0.9166666665909091  0.1896293  1.0000
  Se  Se1441    1.0  0.2631578946052632  0.9242424243181819  0.32365471999999995  1.0000
  Se  Se1442    1.0  0.27631578960526315  0.9166666665909091  0.6763452799999999  1.0000
  Se  Se1443    1.0  0.2631578947368421  0.9090909090909092  0.0  1.0000
  In  In963     1.0  0.26315789486842106  0.9393939393181818  0.1896293  1.0000
  Se  Se1444    1.0  0.26315789486842106  0.9393939393181818  0.6763452799999999  1.0000
  In  In964     1.0  0.27631578934210527  0.9469696970454545  0.8103706999999999  1.0000
  Se  Se1445    1.0  0.27631578934210527  0.9469696970454545  0.32365471999999995  1.0000
  Se  Se1446    1.0  0.2763157894736842  0.9318181818181819  0.0  1.0000
  In  In965     1.0  0.2631578946052632  0.9696969697727275  0.8103706999999999  1.0000
  In  In966     1.0  0.27631578960526315  0.9621212120454546  0.1896293  1.0000
  Se  Se1447    1.0  0.2631578946052632  0.9696969697727275  0.32365471999999995  1.0000
  Se  Se1448    1.0  0.27631578960526315  0.9621212120454546  0.6763452799999999  1.0000
  Se  Se1449    1.0  0.2631578947368421  0.9545454545454547  0.0  1.0000
  In  In967     1.0  0.26315789486842106  0.9848484847727275  0.1896293  1.0000
  Se  Se1450    1.0  0.26315789486842106  0.9848484847727275  0.6763452799999999  1.0000
  In  In968     1.0  0.27631578934210527  0.9924242425  0.8103706999999999  1.0000
  Se  Se1451    1.0  0.27631578934210527  0.9924242425  0.32365471999999995  1.0000
  Se  Se1452    1.0  0.2763157894736842  0.9772727272727274  0.0  1.0000
  In  In969     1.0  0.28947368407894736  0.01515151522727273  0.8103706999999999  1.0000
  In  In970     1.0  0.30263157907894733  0.0075757575  0.1896293  1.0000
  Se  Se1453    1.0  0.28947368407894736  0.01515151522727273  0.32365471999999995  1.0000
  Se  Se1454    1.0  0.30263157907894733  0.0075757575  0.6763452799999999  1.0000
  Se  Se1455    1.0  0.28947368421052627  0.0  0.0  1.0000
  In  In971     1.0  0.28947368434210524  0.030303030227272734  0.1896293  1.0000
  Se  Se1456    1.0  0.28947368434210524  0.030303030227272734  0.6763452799999999  1.0000
  In  In972     1.0  0.30263157881578945  0.03787878795454546  0.8103706999999999  1.0000
  Se  Se1457    1.0  0.30263157881578945  0.03787878795454546  0.32365471999999995  1.0000
  Se  Se1458    1.0  0.30263157894736836  0.022727272727272728  0.0  1.0000
  In  In973     1.0  0.28947368407894736  0.06060606068181818  0.8103706999999999  1.0000
  In  In974     1.0  0.30263157907894733  0.05303030295454546  0.1896293  1.0000
  Se  Se1459    1.0  0.28947368407894736  0.06060606068181818  0.32365471999999995  1.0000
  Se  Se1460    1.0  0.30263157907894733  0.05303030295454546  0.6763452799999999  1.0000
  Se  Se1461    1.0  0.28947368421052627  0.045454545454545456  0.0  1.0000
  In  In975     1.0  0.28947368434210524  0.07575757568181819  0.1896293  1.0000
  Se  Se1462    1.0  0.28947368434210524  0.07575757568181819  0.6763452799999999  1.0000
  In  In976     1.0  0.30263157881578945  0.08333333340909092  0.8103706999999999  1.0000
  Se  Se1463    1.0  0.30263157881578945  0.08333333340909092  0.32365471999999995  1.0000
  Se  Se1464    1.0  0.30263157894736836  0.06818181818181819  0.0  1.0000
  In  In977     1.0  0.28947368407894736  0.10606060613636366  0.8103706999999999  1.0000
  In  In978     1.0  0.30263157907894733  0.09848484840909091  0.1896293  1.0000
  Se  Se1465    1.0  0.28947368407894736  0.10606060613636366  0.32365471999999995  1.0000
  Se  Se1466    1.0  0.30263157907894733  0.09848484840909091  0.6763452799999999  1.0000
  Se  Se1467    1.0  0.28947368421052627  0.09090909090909091  0.0  1.0000
  In  In979     1.0  0.28947368434210524  0.12121212113636365  0.1896293  1.0000
  Se  Se1468    1.0  0.28947368434210524  0.12121212113636365  0.6763452799999999  1.0000
  In  In980     1.0  0.30263157881578945  0.12878787886363638  0.8103706999999999  1.0000
  Se  Se1469    1.0  0.30263157881578945  0.12878787886363638  0.32365471999999995  1.0000
  Se  Se1470    1.0  0.30263157894736836  0.11363636363636365  0.0  1.0000
  In  In981     1.0  0.28947368407894736  0.15151515159090911  0.8103706999999999  1.0000
  In  In982     1.0  0.30263157907894733  0.1439393938636364  0.1896293  1.0000
  Se  Se1471    1.0  0.28947368407894736  0.15151515159090911  0.32365471999999995  1.0000
  Se  Se1472    1.0  0.30263157907894733  0.1439393938636364  0.6763452799999999  1.0000
  Se  Se1473    1.0  0.28947368421052627  0.13636363636363638  0.0  1.0000
  In  In983     1.0  0.28947368434210524  0.16666666659090912  0.1896293  1.0000
  Se  Se1474    1.0  0.28947368434210524  0.16666666659090912  0.6763452799999999  1.0000
  In  In984     1.0  0.30263157881578945  0.17424242431818185  0.8103706999999999  1.0000
  Se  Se1475    1.0  0.30263157881578945  0.17424242431818185  0.32365471999999995  1.0000
  Se  Se1476    1.0  0.30263157894736836  0.15909090909090912  0.0  1.0000
  In  In985     1.0  0.28947368407894736  0.19696969704545458  0.8103706999999999  1.0000
  In  In986     1.0  0.30263157907894733  0.18939393931818185  0.1896293  1.0000
  Se  Se1477    1.0  0.28947368407894736  0.19696969704545458  0.32365471999999995  1.0000
  Se  Se1478    1.0  0.30263157907894733  0.18939393931818185  0.6763452799999999  1.0000
  Se  Se1479    1.0  0.28947368421052627  0.18181818181818182  0.0  1.0000
  In  In987     1.0  0.28947368434210524  0.21212121204545456  0.1896293  1.0000
  Se  Se1480    1.0  0.28947368434210524  0.21212121204545456  0.6763452799999999  1.0000
  In  In988     1.0  0.30263157881578945  0.21969696977272726  0.8103706999999999  1.0000
  Se  Se1481    1.0  0.30263157881578945  0.21969696977272726  0.32365471999999995  1.0000
  Se  Se1482    1.0  0.30263157894736836  0.20454545454545456  0.0  1.0000
  In  In989     1.0  0.28947368407894736  0.2424242425  0.8103706999999999  1.0000
  In  In990     1.0  0.30263157907894733  0.2348484847727273  0.1896293  1.0000
  Se  Se1483    1.0  0.28947368407894736  0.2424242425  0.32365471999999995  1.0000
  Se  Se1484    1.0  0.30263157907894733  0.2348484847727273  0.6763452799999999  1.0000
  Se  Se1485    1.0  0.28947368421052627  0.2272727272727273  0.0  1.0000
  In  In991     1.0  0.28947368434210524  0.2575757575  0.1896293  1.0000
  Se  Se1486    1.0  0.28947368434210524  0.2575757575  0.6763452799999999  1.0000
  In  In992     1.0  0.30263157881578945  0.2651515152272727  0.8103706999999999  1.0000
  Se  Se1487    1.0  0.30263157881578945  0.2651515152272727  0.32365471999999995  1.0000
  Se  Se1488    1.0  0.30263157894736836  0.25  0.0  1.0000
  In  In993     1.0  0.28947368407894736  0.28787878795454547  0.8103706999999999  1.0000
  In  In994     1.0  0.30263157907894733  0.28030303022727276  0.1896293  1.0000
  Se  Se1489    1.0  0.28947368407894736  0.28787878795454547  0.32365471999999995  1.0000
  Se  Se1490    1.0  0.30263157907894733  0.28030303022727276  0.6763452799999999  1.0000
  Se  Se1491    1.0  0.28947368421052627  0.27272727272727276  0.0  1.0000
  In  In995     1.0  0.28947368434210524  0.3030303029545455  0.1896293  1.0000
  Se  Se1492    1.0  0.28947368434210524  0.3030303029545455  0.6763452799999999  1.0000
  In  In996     1.0  0.30263157881578945  0.3106060606818183  0.8103706999999999  1.0000
  Se  Se1493    1.0  0.30263157881578945  0.3106060606818183  0.32365471999999995  1.0000
  Se  Se1494    1.0  0.30263157894736836  0.2954545454545455  0.0  1.0000
  In  In997     1.0  0.28947368407894736  0.33333333340909094  0.8103706999999999  1.0000
  In  In998     1.0  0.30263157907894733  0.32575757568181823  0.1896293  1.0000
  Se  Se1495    1.0  0.28947368407894736  0.33333333340909094  0.32365471999999995  1.0000
  Se  Se1496    1.0  0.30263157907894733  0.32575757568181823  0.6763452799999999  1.0000
  Se  Se1497    1.0  0.28947368421052627  0.31818181818181823  0.0  1.0000
  In  In999     1.0  0.28947368434210524  0.34848484840909094  0.1896293  1.0000
  Se  Se1498    1.0  0.28947368434210524  0.34848484840909094  0.6763452799999999  1.0000
  In  In1000    1.0  0.30263157881578945  0.3560606061363637  0.8103706999999999  1.0000
  Se  Se1499    1.0  0.30263157881578945  0.3560606061363637  0.32365471999999995  1.0000
  Se  Se1500    1.0  0.30263157894736836  0.34090909090909094  0.0  1.0000
  In  In1001    1.0  0.28947368407894736  0.3787878788636364  0.8103706999999999  1.0000
  In  In1002    1.0  0.30263157907894733  0.3712121211363637  0.1896293  1.0000
  Se  Se1501    1.0  0.28947368407894736  0.3787878788636364  0.32365471999999995  1.0000
  Se  Se1502    1.0  0.30263157907894733  0.3712121211363637  0.6763452799999999  1.0000
  Se  Se1503    1.0  0.28947368421052627  0.36363636363636365  0.0  1.0000
  In  In1003    1.0  0.28947368434210524  0.3939393938636364  0.1896293  1.0000
  Se  Se1504    1.0  0.28947368434210524  0.3939393938636364  0.6763452799999999  1.0000
  In  In1004    1.0  0.30263157881578945  0.40151515159090917  0.8103706999999999  1.0000
  Se  Se1505    1.0  0.30263157881578945  0.40151515159090917  0.32365471999999995  1.0000
  Se  Se1506    1.0  0.30263157894736836  0.3863636363636364  0.0  1.0000
  In  In1005    1.0  0.28947368407894736  0.4242424243181818  0.8103706999999999  1.0000
  In  In1006    1.0  0.30263157907894733  0.4166666665909091  0.1896293  1.0000
  Se  Se1507    1.0  0.28947368407894736  0.4242424243181818  0.32365471999999995  1.0000
  Se  Se1508    1.0  0.30263157907894733  0.4166666665909091  0.6763452799999999  1.0000
  Se  Se1509    1.0  0.28947368421052627  0.4090909090909091  0.0  1.0000
  In  In1007    1.0  0.28947368434210524  0.4393939393181818  0.1896293  1.0000
  Se  Se1510    1.0  0.28947368434210524  0.4393939393181818  0.6763452799999999  1.0000
  In  In1008    1.0  0.30263157881578945  0.4469696970454546  0.8103706999999999  1.0000
  Se  Se1511    1.0  0.30263157881578945  0.4469696970454546  0.32365471999999995  1.0000
  Se  Se1512    1.0  0.30263157894736836  0.4318181818181819  0.0  1.0000
  In  In1009    1.0  0.28947368407894736  0.4696969697727273  0.8103706999999999  1.0000
  In  In1010    1.0  0.30263157907894733  0.46212121204545453  0.1896293  1.0000
  Se  Se1513    1.0  0.28947368407894736  0.4696969697727273  0.32365471999999995  1.0000
  Se  Se1514    1.0  0.30263157907894733  0.46212121204545453  0.6763452799999999  1.0000
  Se  Se1515    1.0  0.28947368421052627  0.4545454545454546  0.0  1.0000
  In  In1011    1.0  0.28947368434210524  0.4848484847727273  0.1896293  1.0000
  Se  Se1516    1.0  0.28947368434210524  0.4848484847727273  0.6763452799999999  1.0000
  In  In1012    1.0  0.30263157881578945  0.49242424250000005  0.8103706999999999  1.0000
  Se  Se1517    1.0  0.30263157881578945  0.49242424250000005  0.32365471999999995  1.0000
  Se  Se1518    1.0  0.30263157894736836  0.47727272727272735  0.0  1.0000
  In  In1013    1.0  0.28947368407894736  0.5151515152272728  0.8103706999999999  1.0000
  In  In1014    1.0  0.30263157907894733  0.5075757575  0.1896293  1.0000
  Se  Se1519    1.0  0.28947368407894736  0.5151515152272728  0.32365471999999995  1.0000
  Se  Se1520    1.0  0.30263157907894733  0.5075757575  0.6763452799999999  1.0000
  Se  Se1521    1.0  0.28947368421052627  0.5  0.0  1.0000
  In  In1015    1.0  0.28947368434210524  0.5303030302272728  0.1896293  1.0000
  Se  Se1522    1.0  0.28947368434210524  0.5303030302272728  0.6763452799999999  1.0000
  In  In1016    1.0  0.30263157881578945  0.5378787879545455  0.8103706999999999  1.0000
  Se  Se1523    1.0  0.30263157881578945  0.5378787879545455  0.32365471999999995  1.0000
  Se  Se1524    1.0  0.30263157894736836  0.5227272727272728  0.0  1.0000
  In  In1017    1.0  0.28947368407894736  0.5606060606818183  0.8103706999999999  1.0000
  In  In1018    1.0  0.30263157907894733  0.5530303029545455  0.1896293  1.0000
  Se  Se1525    1.0  0.28947368407894736  0.5606060606818183  0.32365471999999995  1.0000
  Se  Se1526    1.0  0.30263157907894733  0.5530303029545455  0.6763452799999999  1.0000
  Se  Se1527    1.0  0.28947368421052627  0.5454545454545455  0.0  1.0000
  In  In1019    1.0  0.28947368434210524  0.5757575756818183  0.1896293  1.0000
  Se  Se1528    1.0  0.28947368434210524  0.5757575756818183  0.6763452799999999  1.0000
  In  In1020    1.0  0.30263157881578945  0.583333333409091  0.8103706999999999  1.0000
  Se  Se1529    1.0  0.30263157881578945  0.583333333409091  0.32365471999999995  1.0000
  Se  Se1530    1.0  0.30263157894736836  0.5681818181818183  0.0  1.0000
  In  In1021    1.0  0.28947368407894736  0.6060606061363637  0.8103706999999999  1.0000
  In  In1022    1.0  0.30263157907894733  0.598484848409091  0.1896293  1.0000
  Se  Se1531    1.0  0.28947368407894736  0.6060606061363637  0.32365471999999995  1.0000
  Se  Se1532    1.0  0.30263157907894733  0.598484848409091  0.6763452799999999  1.0000
  Se  Se1533    1.0  0.28947368421052627  0.590909090909091  0.0  1.0000
  In  In1023    1.0  0.28947368434210524  0.6212121211363637  0.1896293  1.0000
  Se  Se1534    1.0  0.28947368434210524  0.6212121211363637  0.6763452799999999  1.0000
  In  In1024    1.0  0.30263157881578945  0.6287878788636365  0.8103706999999999  1.0000
  Se  Se1535    1.0  0.30263157881578945  0.6287878788636365  0.32365471999999995  1.0000
  Se  Se1536    1.0  0.30263157894736836  0.6136363636363638  0.0  1.0000
  In  In1025    1.0  0.28947368407894736  0.6515151515909091  0.8103706999999999  1.0000
  In  In1026    1.0  0.30263157907894733  0.6439393938636364  0.1896293  1.0000
  Se  Se1537    1.0  0.28947368407894736  0.6515151515909091  0.32365471999999995  1.0000
  Se  Se1538    1.0  0.30263157907894733  0.6439393938636364  0.6763452799999999  1.0000
  Se  Se1539    1.0  0.28947368421052627  0.6363636363636365  0.0  1.0000
  In  In1027    1.0  0.28947368434210524  0.6666666665909092  0.1896293  1.0000
  Se  Se1540    1.0  0.28947368434210524  0.6666666665909092  0.6763452799999999  1.0000
  In  In1028    1.0  0.30263157881578945  0.6742424243181819  0.8103706999999999  1.0000
  Se  Se1541    1.0  0.30263157881578945  0.6742424243181819  0.32365471999999995  1.0000
  Se  Se1542    1.0  0.30263157894736836  0.6590909090909092  0.0  1.0000
  In  In1029    1.0  0.28947368407894736  0.6969696970454546  0.8103706999999999  1.0000
  In  In1030    1.0  0.30263157907894733  0.6893939393181818  0.1896293  1.0000
  Se  Se1543    1.0  0.28947368407894736  0.6969696970454546  0.32365471999999995  1.0000
  Se  Se1544    1.0  0.30263157907894733  0.6893939393181818  0.6763452799999999  1.0000
  Se  Se1545    1.0  0.28947368421052627  0.6818181818181819  0.0  1.0000
  In  In1031    1.0  0.28947368434210524  0.7121212120454546  0.1896293  1.0000
  Se  Se1546    1.0  0.28947368434210524  0.7121212120454546  0.6763452799999999  1.0000
  In  In1032    1.0  0.30263157881578945  0.7196969697727273  0.8103706999999999  1.0000
  Se  Se1547    1.0  0.30263157881578945  0.7196969697727273  0.32365471999999995  1.0000
  Se  Se1548    1.0  0.30263157894736836  0.7045454545454547  0.0  1.0000
  In  In1033    1.0  0.28947368407894736  0.7424242425  0.8103706999999999  1.0000
  In  In1034    1.0  0.30263157907894733  0.7348484847727274  0.1896293  1.0000
  Se  Se1549    1.0  0.28947368407894736  0.7424242425  0.32365471999999995  1.0000
  Se  Se1550    1.0  0.30263157907894733  0.7348484847727274  0.6763452799999999  1.0000
  Se  Se1551    1.0  0.28947368421052627  0.7272727272727273  0.0  1.0000
  In  In1035    1.0  0.28947368434210524  0.7575757575000001  0.1896293  1.0000
  Se  Se1552    1.0  0.28947368434210524  0.7575757575000001  0.6763452799999999  1.0000
  In  In1036    1.0  0.30263157881578945  0.7651515152272729  0.8103706999999999  1.0000
  Se  Se1553    1.0  0.30263157881578945  0.7651515152272729  0.32365471999999995  1.0000
  Se  Se1554    1.0  0.30263157894736836  0.7500000000000001  0.0  1.0000
  In  In1037    1.0  0.28947368407894736  0.7878787879545455  0.8103706999999999  1.0000
  In  In1038    1.0  0.30263157907894733  0.7803030302272728  0.1896293  1.0000
  Se  Se1555    1.0  0.28947368407894736  0.7878787879545455  0.32365471999999995  1.0000
  Se  Se1556    1.0  0.30263157907894733  0.7803030302272728  0.6763452799999999  1.0000
  Se  Se1557    1.0  0.28947368421052627  0.7727272727272728  0.0  1.0000
  In  In1039    1.0  0.28947368434210524  0.8030303029545455  0.1896293  1.0000
  Se  Se1558    1.0  0.28947368434210524  0.8030303029545455  0.6763452799999999  1.0000
  In  In1040    1.0  0.30263157881578945  0.8106060606818183  0.8103706999999999  1.0000
  Se  Se1559    1.0  0.30263157881578945  0.8106060606818183  0.32365471999999995  1.0000
  Se  Se1560    1.0  0.30263157894736836  0.7954545454545455  0.0  1.0000
  In  In1041    1.0  0.28947368407894736  0.833333333409091  0.8103706999999999  1.0000
  In  In1042    1.0  0.30263157907894733  0.8257575756818182  0.1896293  1.0000
  Se  Se1561    1.0  0.28947368407894736  0.833333333409091  0.32365471999999995  1.0000
  Se  Se1562    1.0  0.30263157907894733  0.8257575756818182  0.6763452799999999  1.0000
  Se  Se1563    1.0  0.28947368421052627  0.8181818181818182  0.0  1.0000
  In  In1043    1.0  0.28947368434210524  0.848484848409091  0.1896293  1.0000
  Se  Se1564    1.0  0.28947368434210524  0.848484848409091  0.6763452799999999  1.0000
  In  In1044    1.0  0.30263157881578945  0.8560606061363636  0.8103706999999999  1.0000
  Se  Se1565    1.0  0.30263157881578945  0.8560606061363636  0.32365471999999995  1.0000
  Se  Se1566    1.0  0.30263157894736836  0.840909090909091  0.0  1.0000
  In  In1045    1.0  0.28947368407894736  0.8787878788636366  0.8103706999999999  1.0000
  In  In1046    1.0  0.30263157907894733  0.8712121211363637  0.1896293  1.0000
  Se  Se1567    1.0  0.28947368407894736  0.8787878788636366  0.32365471999999995  1.0000
  Se  Se1568    1.0  0.30263157907894733  0.8712121211363637  0.6763452799999999  1.0000
  Se  Se1569    1.0  0.28947368421052627  0.8636363636363638  0.0  1.0000
  In  In1047    1.0  0.28947368434210524  0.8939393938636365  0.1896293  1.0000
  Se  Se1570    1.0  0.28947368434210524  0.8939393938636365  0.6763452799999999  1.0000
  In  In1048    1.0  0.30263157881578945  0.9015151515909092  0.8103706999999999  1.0000
  Se  Se1571    1.0  0.30263157881578945  0.9015151515909092  0.32365471999999995  1.0000
  Se  Se1572    1.0  0.30263157894736836  0.8863636363636366  0.0  1.0000
  In  In1049    1.0  0.28947368407894736  0.9242424243181819  0.8103706999999999  1.0000
  In  In1050    1.0  0.30263157907894733  0.9166666665909091  0.1896293  1.0000
  Se  Se1573    1.0  0.28947368407894736  0.9242424243181819  0.32365471999999995  1.0000
  Se  Se1574    1.0  0.30263157907894733  0.9166666665909091  0.6763452799999999  1.0000
  Se  Se1575    1.0  0.28947368421052627  0.9090909090909092  0.0  1.0000
  In  In1051    1.0  0.28947368434210524  0.9393939393181818  0.1896293  1.0000
  Se  Se1576    1.0  0.28947368434210524  0.9393939393181818  0.6763452799999999  1.0000
  In  In1052    1.0  0.30263157881578945  0.9469696970454545  0.8103706999999999  1.0000
  Se  Se1577    1.0  0.30263157881578945  0.9469696970454545  0.32365471999999995  1.0000
  Se  Se1578    1.0  0.30263157894736836  0.9318181818181819  0.0  1.0000
  In  In1053    1.0  0.28947368407894736  0.9696969697727275  0.8103706999999999  1.0000
  In  In1054    1.0  0.30263157907894733  0.9621212120454546  0.1896293  1.0000
  Se  Se1579    1.0  0.28947368407894736  0.9696969697727275  0.32365471999999995  1.0000
  Se  Se1580    1.0  0.30263157907894733  0.9621212120454546  0.6763452799999999  1.0000
  Se  Se1581    1.0  0.28947368421052627  0.9545454545454547  0.0  1.0000
  In  In1055    1.0  0.28947368434210524  0.9848484847727275  0.1896293  1.0000
  Se  Se1582    1.0  0.28947368434210524  0.9848484847727275  0.6763452799999999  1.0000
  In  In1056    1.0  0.30263157881578945  0.9924242425  0.8103706999999999  1.0000
  Se  Se1583    1.0  0.30263157881578945  0.9924242425  0.32365471999999995  1.0000
  Se  Se1584    1.0  0.30263157894736836  0.9772727272727274  0.0  1.0000
  In  In1057    1.0  0.31578947355263154  0.01515151522727273  0.8103706999999999  1.0000
  In  In1058    1.0  0.3289473685526315  0.0075757575  0.1896293  1.0000
  Se  Se1585    1.0  0.31578947355263154  0.01515151522727273  0.32365471999999995  1.0000
  Se  Se1586    1.0  0.3289473685526315  0.0075757575  0.6763452799999999  1.0000
  Se  Se1587    1.0  0.31578947368421045  0.0  0.0  1.0000
  In  In1059    1.0  0.3157894738157894  0.030303030227272734  0.1896293  1.0000
  Se  Se1588    1.0  0.3157894738157894  0.030303030227272734  0.6763452799999999  1.0000
  In  In1060    1.0  0.32894736828947363  0.03787878795454546  0.8103706999999999  1.0000
  Se  Se1589    1.0  0.32894736828947363  0.03787878795454546  0.32365471999999995  1.0000
  Se  Se1590    1.0  0.3289473684210526  0.022727272727272728  0.0  1.0000
  In  In1061    1.0  0.31578947355263154  0.06060606068181818  0.8103706999999999  1.0000
  In  In1062    1.0  0.3289473685526315  0.05303030295454546  0.1896293  1.0000
  Se  Se1591    1.0  0.31578947355263154  0.06060606068181818  0.32365471999999995  1.0000
  Se  Se1592    1.0  0.3289473685526315  0.05303030295454546  0.6763452799999999  1.0000
  Se  Se1593    1.0  0.31578947368421045  0.045454545454545456  0.0  1.0000
  In  In1063    1.0  0.3157894738157894  0.07575757568181819  0.1896293  1.0000
  Se  Se1594    1.0  0.3157894738157894  0.07575757568181819  0.6763452799999999  1.0000
  In  In1064    1.0  0.32894736828947363  0.08333333340909092  0.8103706999999999  1.0000
  Se  Se1595    1.0  0.32894736828947363  0.08333333340909092  0.32365471999999995  1.0000
  Se  Se1596    1.0  0.3289473684210526  0.06818181818181819  0.0  1.0000
  In  In1065    1.0  0.31578947355263154  0.10606060613636366  0.8103706999999999  1.0000
  In  In1066    1.0  0.3289473685526315  0.09848484840909091  0.1896293  1.0000
  Se  Se1597    1.0  0.31578947355263154  0.10606060613636366  0.32365471999999995  1.0000
  Se  Se1598    1.0  0.3289473685526315  0.09848484840909091  0.6763452799999999  1.0000
  Se  Se1599    1.0  0.31578947368421045  0.09090909090909091  0.0  1.0000
  In  In1067    1.0  0.3157894738157894  0.12121212113636365  0.1896293  1.0000
  Se  Se1600    1.0  0.3157894738157894  0.12121212113636365  0.6763452799999999  1.0000
  In  In1068    1.0  0.32894736828947363  0.12878787886363638  0.8103706999999999  1.0000
  Se  Se1601    1.0  0.32894736828947363  0.12878787886363638  0.32365471999999995  1.0000
  Se  Se1602    1.0  0.3289473684210526  0.11363636363636365  0.0  1.0000
  In  In1069    1.0  0.31578947355263154  0.15151515159090911  0.8103706999999999  1.0000
  In  In1070    1.0  0.3289473685526315  0.1439393938636364  0.1896293  1.0000
  Se  Se1603    1.0  0.31578947355263154  0.15151515159090911  0.32365471999999995  1.0000
  Se  Se1604    1.0  0.3289473685526315  0.1439393938636364  0.6763452799999999  1.0000
  Se  Se1605    1.0  0.31578947368421045  0.13636363636363638  0.0  1.0000
  In  In1071    1.0  0.3157894738157894  0.16666666659090912  0.1896293  1.0000
  Se  Se1606    1.0  0.3157894738157894  0.16666666659090912  0.6763452799999999  1.0000
  In  In1072    1.0  0.32894736828947363  0.17424242431818185  0.8103706999999999  1.0000
  Se  Se1607    1.0  0.32894736828947363  0.17424242431818185  0.32365471999999995  1.0000
  Se  Se1608    1.0  0.3289473684210526  0.15909090909090912  0.0  1.0000
  In  In1073    1.0  0.31578947355263154  0.19696969704545458  0.8103706999999999  1.0000
  In  In1074    1.0  0.3289473685526315  0.18939393931818185  0.1896293  1.0000
  Se  Se1609    1.0  0.31578947355263154  0.19696969704545458  0.32365471999999995  1.0000
  Se  Se1610    1.0  0.3289473685526315  0.18939393931818185  0.6763452799999999  1.0000
  Se  Se1611    1.0  0.31578947368421045  0.18181818181818182  0.0  1.0000
  In  In1075    1.0  0.3157894738157894  0.21212121204545456  0.1896293  1.0000
  Se  Se1612    1.0  0.3157894738157894  0.21212121204545456  0.6763452799999999  1.0000
  In  In1076    1.0  0.32894736828947363  0.21969696977272726  0.8103706999999999  1.0000
  Se  Se1613    1.0  0.32894736828947363  0.21969696977272726  0.32365471999999995  1.0000
  Se  Se1614    1.0  0.3289473684210526  0.20454545454545456  0.0  1.0000
  In  In1077    1.0  0.31578947355263154  0.2424242425  0.8103706999999999  1.0000
  In  In1078    1.0  0.3289473685526315  0.2348484847727273  0.1896293  1.0000
  Se  Se1615    1.0  0.31578947355263154  0.2424242425  0.32365471999999995  1.0000
  Se  Se1616    1.0  0.3289473685526315  0.2348484847727273  0.6763452799999999  1.0000
  Se  Se1617    1.0  0.31578947368421045  0.2272727272727273  0.0  1.0000
  In  In1079    1.0  0.3157894738157894  0.2575757575  0.1896293  1.0000
  Se  Se1618    1.0  0.3157894738157894  0.2575757575  0.6763452799999999  1.0000
  In  In1080    1.0  0.32894736828947363  0.2651515152272727  0.8103706999999999  1.0000
  Se  Se1619    1.0  0.32894736828947363  0.2651515152272727  0.32365471999999995  1.0000
  Se  Se1620    1.0  0.3289473684210526  0.25  0.0  1.0000
  In  In1081    1.0  0.31578947355263154  0.28787878795454547  0.8103706999999999  1.0000
  In  In1082    1.0  0.3289473685526315  0.28030303022727276  0.1896293  1.0000
  Se  Se1621    1.0  0.31578947355263154  0.28787878795454547  0.32365471999999995  1.0000
  Se  Se1622    1.0  0.3289473685526315  0.28030303022727276  0.6763452799999999  1.0000
  Se  Se1623    1.0  0.31578947368421045  0.27272727272727276  0.0  1.0000
  In  In1083    1.0  0.3157894738157894  0.3030303029545455  0.1896293  1.0000
  Se  Se1624    1.0  0.3157894738157894  0.3030303029545455  0.6763452799999999  1.0000
  In  In1084    1.0  0.32894736828947363  0.3106060606818183  0.8103706999999999  1.0000
  Se  Se1625    1.0  0.32894736828947363  0.3106060606818183  0.32365471999999995  1.0000
  Se  Se1626    1.0  0.3289473684210526  0.2954545454545455  0.0  1.0000
  In  In1085    1.0  0.31578947355263154  0.33333333340909094  0.8103706999999999  1.0000
  In  In1086    1.0  0.3289473685526315  0.32575757568181823  0.1896293  1.0000
  Se  Se1627    1.0  0.31578947355263154  0.33333333340909094  0.32365471999999995  1.0000
  Se  Se1628    1.0  0.3289473685526315  0.32575757568181823  0.6763452799999999  1.0000
  Se  Se1629    1.0  0.31578947368421045  0.31818181818181823  0.0  1.0000
  In  In1087    1.0  0.3157894738157894  0.34848484840909094  0.1896293  1.0000
  Se  Se1630    1.0  0.3157894738157894  0.34848484840909094  0.6763452799999999  1.0000
  In  In1088    1.0  0.32894736828947363  0.3560606061363637  0.8103706999999999  1.0000
  Se  Se1631    1.0  0.32894736828947363  0.3560606061363637  0.32365471999999995  1.0000
  Se  Se1632    1.0  0.3289473684210526  0.34090909090909094  0.0  1.0000
  In  In1089    1.0  0.31578947355263154  0.3787878788636364  0.8103706999999999  1.0000
  In  In1090    1.0  0.3289473685526315  0.3712121211363637  0.1896293  1.0000
  Se  Se1633    1.0  0.31578947355263154  0.3787878788636364  0.32365471999999995  1.0000
  Se  Se1634    1.0  0.3289473685526315  0.3712121211363637  0.6763452799999999  1.0000
  Se  Se1635    1.0  0.31578947368421045  0.36363636363636365  0.0  1.0000
  In  In1091    1.0  0.3157894738157894  0.3939393938636364  0.1896293  1.0000
  Se  Se1636    1.0  0.3157894738157894  0.3939393938636364  0.6763452799999999  1.0000
  In  In1092    1.0  0.32894736828947363  0.40151515159090917  0.8103706999999999  1.0000
  Se  Se1637    1.0  0.32894736828947363  0.40151515159090917  0.32365471999999995  1.0000
  Se  Se1638    1.0  0.3289473684210526  0.3863636363636364  0.0  1.0000
  In  In1093    1.0  0.31578947355263154  0.4242424243181818  0.8103706999999999  1.0000
  In  In1094    1.0  0.3289473685526315  0.4166666665909091  0.1896293  1.0000
  Se  Se1639    1.0  0.31578947355263154  0.4242424243181818  0.32365471999999995  1.0000
  Se  Se1640    1.0  0.3289473685526315  0.4166666665909091  0.6763452799999999  1.0000
  Se  Se1641    1.0  0.31578947368421045  0.4090909090909091  0.0  1.0000
  In  In1095    1.0  0.3157894738157894  0.4393939393181818  0.1896293  1.0000
  Se  Se1642    1.0  0.3157894738157894  0.4393939393181818  0.6763452799999999  1.0000
  In  In1096    1.0  0.32894736828947363  0.4469696970454546  0.8103706999999999  1.0000
  Se  Se1643    1.0  0.32894736828947363  0.4469696970454546  0.32365471999999995  1.0000
  Se  Se1644    1.0  0.3289473684210526  0.4318181818181819  0.0  1.0000
  In  In1097    1.0  0.31578947355263154  0.4696969697727273  0.8103706999999999  1.0000
  In  In1098    1.0  0.3289473685526315  0.46212121204545453  0.1896293  1.0000
  Se  Se1645    1.0  0.31578947355263154  0.4696969697727273  0.32365471999999995  1.0000
  Se  Se1646    1.0  0.3289473685526315  0.46212121204545453  0.6763452799999999  1.0000
  Se  Se1647    1.0  0.31578947368421045  0.4545454545454546  0.0  1.0000
  In  In1099    1.0  0.3157894738157894  0.4848484847727273  0.1896293  1.0000
  Se  Se1648    1.0  0.3157894738157894  0.4848484847727273  0.6763452799999999  1.0000
  In  In1100    1.0  0.32894736828947363  0.49242424250000005  0.8103706999999999  1.0000
  Se  Se1649    1.0  0.32894736828947363  0.49242424250000005  0.32365471999999995  1.0000
  Se  Se1650    1.0  0.3289473684210526  0.47727272727272735  0.0  1.0000
  In  In1101    1.0  0.31578947355263154  0.5151515152272728  0.8103706999999999  1.0000
  In  In1102    1.0  0.3289473685526315  0.5075757575  0.1896293  1.0000
  Se  Se1651    1.0  0.31578947355263154  0.5151515152272728  0.32365471999999995  1.0000
  Se  Se1652    1.0  0.3289473685526315  0.5075757575  0.6763452799999999  1.0000
  Se  Se1653    1.0  0.31578947368421045  0.5  0.0  1.0000
  In  In1103    1.0  0.3157894738157894  0.5303030302272728  0.1896293  1.0000
  Se  Se1654    1.0  0.3157894738157894  0.5303030302272728  0.6763452799999999  1.0000
  In  In1104    1.0  0.32894736828947363  0.5378787879545455  0.8103706999999999  1.0000
  Se  Se1655    1.0  0.32894736828947363  0.5378787879545455  0.32365471999999995  1.0000
  Se  Se1656    1.0  0.3289473684210526  0.5227272727272728  0.0  1.0000
  In  In1105    1.0  0.31578947355263154  0.5606060606818183  0.8103706999999999  1.0000
  In  In1106    1.0  0.3289473685526315  0.5530303029545455  0.1896293  1.0000
  Se  Se1657    1.0  0.31578947355263154  0.5606060606818183  0.32365471999999995  1.0000
  Se  Se1658    1.0  0.3289473685526315  0.5530303029545455  0.6763452799999999  1.0000
  Se  Se1659    1.0  0.31578947368421045  0.5454545454545455  0.0  1.0000
  In  In1107    1.0  0.3157894738157894  0.5757575756818183  0.1896293  1.0000
  Se  Se1660    1.0  0.3157894738157894  0.5757575756818183  0.6763452799999999  1.0000
  In  In1108    1.0  0.32894736828947363  0.583333333409091  0.8103706999999999  1.0000
  Se  Se1661    1.0  0.32894736828947363  0.583333333409091  0.32365471999999995  1.0000
  Se  Se1662    1.0  0.3289473684210526  0.5681818181818183  0.0  1.0000
  In  In1109    1.0  0.31578947355263154  0.6060606061363637  0.8103706999999999  1.0000
  In  In1110    1.0  0.3289473685526315  0.598484848409091  0.1896293  1.0000
  Se  Se1663    1.0  0.31578947355263154  0.6060606061363637  0.32365471999999995  1.0000
  Se  Se1664    1.0  0.3289473685526315  0.598484848409091  0.6763452799999999  1.0000
  Se  Se1665    1.0  0.31578947368421045  0.590909090909091  0.0  1.0000
  In  In1111    1.0  0.3157894738157894  0.6212121211363637  0.1896293  1.0000
  Se  Se1666    1.0  0.3157894738157894  0.6212121211363637  0.6763452799999999  1.0000
  In  In1112    1.0  0.32894736828947363  0.6287878788636365  0.8103706999999999  1.0000
  Se  Se1667    1.0  0.32894736828947363  0.6287878788636365  0.32365471999999995  1.0000
  Se  Se1668    1.0  0.3289473684210526  0.6136363636363638  0.0  1.0000
  In  In1113    1.0  0.31578947355263154  0.6515151515909091  0.8103706999999999  1.0000
  In  In1114    1.0  0.3289473685526315  0.6439393938636364  0.1896293  1.0000
  Se  Se1669    1.0  0.31578947355263154  0.6515151515909091  0.32365471999999995  1.0000
  Se  Se1670    1.0  0.3289473685526315  0.6439393938636364  0.6763452799999999  1.0000
  Se  Se1671    1.0  0.31578947368421045  0.6363636363636365  0.0  1.0000
  In  In1115    1.0  0.3157894738157894  0.6666666665909092  0.1896293  1.0000
  Se  Se1672    1.0  0.3157894738157894  0.6666666665909092  0.6763452799999999  1.0000
  In  In1116    1.0  0.32894736828947363  0.6742424243181819  0.8103706999999999  1.0000
  Se  Se1673    1.0  0.32894736828947363  0.6742424243181819  0.32365471999999995  1.0000
  Se  Se1674    1.0  0.3289473684210526  0.6590909090909092  0.0  1.0000
  In  In1117    1.0  0.31578947355263154  0.6969696970454546  0.8103706999999999  1.0000
  In  In1118    1.0  0.3289473685526315  0.6893939393181818  0.1896293  1.0000
  Se  Se1675    1.0  0.31578947355263154  0.6969696970454546  0.32365471999999995  1.0000
  Se  Se1676    1.0  0.3289473685526315  0.6893939393181818  0.6763452799999999  1.0000
  Se  Se1677    1.0  0.31578947368421045  0.6818181818181819  0.0  1.0000
  In  In1119    1.0  0.3157894738157894  0.7121212120454546  0.1896293  1.0000
  Se  Se1678    1.0  0.3157894738157894  0.7121212120454546  0.6763452799999999  1.0000
  In  In1120    1.0  0.32894736828947363  0.7196969697727273  0.8103706999999999  1.0000
  Se  Se1679    1.0  0.32894736828947363  0.7196969697727273  0.32365471999999995  1.0000
  Se  Se1680    1.0  0.3289473684210526  0.7045454545454547  0.0  1.0000
  In  In1121    1.0  0.31578947355263154  0.7424242425  0.8103706999999999  1.0000
  In  In1122    1.0  0.3289473685526315  0.7348484847727274  0.1896293  1.0000
  Se  Se1681    1.0  0.31578947355263154  0.7424242425  0.32365471999999995  1.0000
  Se  Se1682    1.0  0.3289473685526315  0.7348484847727274  0.6763452799999999  1.0000
  Se  Se1683    1.0  0.31578947368421045  0.7272727272727273  0.0  1.0000
  In  In1123    1.0  0.3157894738157894  0.7575757575000001  0.1896293  1.0000
  Se  Se1684    1.0  0.3157894738157894  0.7575757575000001  0.6763452799999999  1.0000
  In  In1124    1.0  0.32894736828947363  0.7651515152272729  0.8103706999999999  1.0000
  Se  Se1685    1.0  0.32894736828947363  0.7651515152272729  0.32365471999999995  1.0000
  Se  Se1686    1.0  0.3289473684210526  0.7500000000000001  0.0  1.0000
  In  In1125    1.0  0.31578947355263154  0.7878787879545455  0.8103706999999999  1.0000
  In  In1126    1.0  0.3289473685526315  0.7803030302272728  0.1896293  1.0000
  Se  Se1687    1.0  0.31578947355263154  0.7878787879545455  0.32365471999999995  1.0000
  Se  Se1688    1.0  0.3289473685526315  0.7803030302272728  0.6763452799999999  1.0000
  Se  Se1689    1.0  0.31578947368421045  0.7727272727272728  0.0  1.0000
  In  In1127    1.0  0.3157894738157894  0.8030303029545455  0.1896293  1.0000
  Se  Se1690    1.0  0.3157894738157894  0.8030303029545455  0.6763452799999999  1.0000
  In  In1128    1.0  0.32894736828947363  0.8106060606818183  0.8103706999999999  1.0000
  Se  Se1691    1.0  0.32894736828947363  0.8106060606818183  0.32365471999999995  1.0000
  Se  Se1692    1.0  0.3289473684210526  0.7954545454545455  0.0  1.0000
  In  In1129    1.0  0.31578947355263154  0.833333333409091  0.8103706999999999  1.0000
  In  In1130    1.0  0.3289473685526315  0.8257575756818182  0.1896293  1.0000
  Se  Se1693    1.0  0.31578947355263154  0.833333333409091  0.32365471999999995  1.0000
  Se  Se1694    1.0  0.3289473685526315  0.8257575756818182  0.6763452799999999  1.0000
  Se  Se1695    1.0  0.31578947368421045  0.8181818181818182  0.0  1.0000
  In  In1131    1.0  0.3157894738157894  0.848484848409091  0.1896293  1.0000
  Se  Se1696    1.0  0.3157894738157894  0.848484848409091  0.6763452799999999  1.0000
  In  In1132    1.0  0.32894736828947363  0.8560606061363636  0.8103706999999999  1.0000
  Se  Se1697    1.0  0.32894736828947363  0.8560606061363636  0.32365471999999995  1.0000
  Se  Se1698    1.0  0.3289473684210526  0.840909090909091  0.0  1.0000
  In  In1133    1.0  0.31578947355263154  0.8787878788636366  0.8103706999999999  1.0000
  In  In1134    1.0  0.3289473685526315  0.8712121211363637  0.1896293  1.0000
  Se  Se1699    1.0  0.31578947355263154  0.8787878788636366  0.32365471999999995  1.0000
  Se  Se1700    1.0  0.3289473685526315  0.8712121211363637  0.6763452799999999  1.0000
  Se  Se1701    1.0  0.31578947368421045  0.8636363636363638  0.0  1.0000
  In  In1135    1.0  0.3157894738157894  0.8939393938636365  0.1896293  1.0000
  Se  Se1702    1.0  0.3157894738157894  0.8939393938636365  0.6763452799999999  1.0000
  In  In1136    1.0  0.32894736828947363  0.9015151515909092  0.8103706999999999  1.0000
  Se  Se1703    1.0  0.32894736828947363  0.9015151515909092  0.32365471999999995  1.0000
  Se  Se1704    1.0  0.3289473684210526  0.8863636363636366  0.0  1.0000
  In  In1137    1.0  0.31578947355263154  0.9242424243181819  0.8103706999999999  1.0000
  In  In1138    1.0  0.3289473685526315  0.9166666665909091  0.1896293  1.0000
  Se  Se1705    1.0  0.31578947355263154  0.9242424243181819  0.32365471999999995  1.0000
  Se  Se1706    1.0  0.3289473685526315  0.9166666665909091  0.6763452799999999  1.0000
  Se  Se1707    1.0  0.31578947368421045  0.9090909090909092  0.0  1.0000
  In  In1139    1.0  0.3157894738157894  0.9393939393181818  0.1896293  1.0000
  Se  Se1708    1.0  0.3157894738157894  0.9393939393181818  0.6763452799999999  1.0000
  In  In1140    1.0  0.32894736828947363  0.9469696970454545  0.8103706999999999  1.0000
  Se  Se1709    1.0  0.32894736828947363  0.9469696970454545  0.32365471999999995  1.0000
  Se  Se1710    1.0  0.3289473684210526  0.9318181818181819  0.0  1.0000
  In  In1141    1.0  0.31578947355263154  0.9696969697727275  0.8103706999999999  1.0000
  In  In1142    1.0  0.3289473685526315  0.9621212120454546  0.1896293  1.0000
  Se  Se1711    1.0  0.31578947355263154  0.9696969697727275  0.32365471999999995  1.0000
  Se  Se1712    1.0  0.3289473685526315  0.9621212120454546  0.6763452799999999  1.0000
  Se  Se1713    1.0  0.31578947368421045  0.9545454545454547  0.0  1.0000
  In  In1143    1.0  0.3157894738157894  0.9848484847727275  0.1896293  1.0000
  Se  Se1714    1.0  0.3157894738157894  0.9848484847727275  0.6763452799999999  1.0000
  In  In1144    1.0  0.32894736828947363  0.9924242425  0.8103706999999999  1.0000
  Se  Se1715    1.0  0.32894736828947363  0.9924242425  0.32365471999999995  1.0000
  Se  Se1716    1.0  0.3289473684210526  0.9772727272727274  0.0  1.0000
  In  In1145    1.0  0.3421052630263158  0.01515151522727273  0.8103706999999999  1.0000
  In  In1146    1.0  0.35526315802631575  0.0075757575  0.1896293  1.0000
  Se  Se1717    1.0  0.3421052630263158  0.01515151522727273  0.32365471999999995  1.0000
  Se  Se1718    1.0  0.35526315802631575  0.0075757575  0.6763452799999999  1.0000
  Se  Se1719    1.0  0.3421052631578947  0.0  0.0  1.0000
  In  In1147    1.0  0.34210526328947366  0.030303030227272734  0.1896293  1.0000
  Se  Se1720    1.0  0.34210526328947366  0.030303030227272734  0.6763452799999999  1.0000
  In  In1148    1.0  0.35526315776315787  0.03787878795454546  0.8103706999999999  1.0000
  Se  Se1721    1.0  0.35526315776315787  0.03787878795454546  0.32365471999999995  1.0000
  Se  Se1722    1.0  0.35526315789473684  0.022727272727272728  0.0  1.0000
  In  In1149    1.0  0.3421052630263158  0.06060606068181818  0.8103706999999999  1.0000
  In  In1150    1.0  0.35526315802631575  0.05303030295454546  0.1896293  1.0000
  Se  Se1723    1.0  0.3421052630263158  0.06060606068181818  0.32365471999999995  1.0000
  Se  Se1724    1.0  0.35526315802631575  0.05303030295454546  0.6763452799999999  1.0000
  Se  Se1725    1.0  0.3421052631578947  0.045454545454545456  0.0  1.0000
  In  In1151    1.0  0.34210526328947366  0.07575757568181819  0.1896293  1.0000
  Se  Se1726    1.0  0.34210526328947366  0.07575757568181819  0.6763452799999999  1.0000
  In  In1152    1.0  0.35526315776315787  0.08333333340909092  0.8103706999999999  1.0000
  Se  Se1727    1.0  0.35526315776315787  0.08333333340909092  0.32365471999999995  1.0000
  Se  Se1728    1.0  0.35526315789473684  0.06818181818181819  0.0  1.0000
  In  In1153    1.0  0.3421052630263158  0.10606060613636366  0.8103706999999999  1.0000
  In  In1154    1.0  0.35526315802631575  0.09848484840909091  0.1896293  1.0000
  Se  Se1729    1.0  0.3421052630263158  0.10606060613636366  0.32365471999999995  1.0000
  Se  Se1730    1.0  0.35526315802631575  0.09848484840909091  0.6763452799999999  1.0000
  Se  Se1731    1.0  0.3421052631578947  0.09090909090909091  0.0  1.0000
  In  In1155    1.0  0.34210526328947366  0.12121212113636365  0.1896293  1.0000
  Se  Se1732    1.0  0.34210526328947366  0.12121212113636365  0.6763452799999999  1.0000
  In  In1156    1.0  0.35526315776315787  0.12878787886363638  0.8103706999999999  1.0000
  Se  Se1733    1.0  0.35526315776315787  0.12878787886363638  0.32365471999999995  1.0000
  Se  Se1734    1.0  0.35526315789473684  0.11363636363636365  0.0  1.0000
  In  In1157    1.0  0.3421052630263158  0.15151515159090911  0.8103706999999999  1.0000
  In  In1158    1.0  0.35526315802631575  0.1439393938636364  0.1896293  1.0000
  Se  Se1735    1.0  0.3421052630263158  0.15151515159090911  0.32365471999999995  1.0000
  Se  Se1736    1.0  0.35526315802631575  0.1439393938636364  0.6763452799999999  1.0000
  Se  Se1737    1.0  0.3421052631578947  0.13636363636363638  0.0  1.0000
  In  In1159    1.0  0.34210526328947366  0.16666666659090912  0.1896293  1.0000
  Se  Se1738    1.0  0.34210526328947366  0.16666666659090912  0.6763452799999999  1.0000
  In  In1160    1.0  0.35526315776315787  0.17424242431818185  0.8103706999999999  1.0000
  Se  Se1739    1.0  0.35526315776315787  0.17424242431818185  0.32365471999999995  1.0000
  Se  Se1740    1.0  0.35526315789473684  0.15909090909090912  0.0  1.0000
  In  In1161    1.0  0.3421052630263158  0.19696969704545458  0.8103706999999999  1.0000
  In  In1162    1.0  0.35526315802631575  0.18939393931818185  0.1896293  1.0000
  Se  Se1741    1.0  0.3421052630263158  0.19696969704545458  0.32365471999999995  1.0000
  Se  Se1742    1.0  0.35526315802631575  0.18939393931818185  0.6763452799999999  1.0000
  Se  Se1743    1.0  0.3421052631578947  0.18181818181818182  0.0  1.0000
  In  In1163    1.0  0.34210526328947366  0.21212121204545456  0.1896293  1.0000
  Se  Se1744    1.0  0.34210526328947366  0.21212121204545456  0.6763452799999999  1.0000
  In  In1164    1.0  0.35526315776315787  0.21969696977272726  0.8103706999999999  1.0000
  Se  Se1745    1.0  0.35526315776315787  0.21969696977272726  0.32365471999999995  1.0000
  Se  Se1746    1.0  0.35526315789473684  0.20454545454545456  0.0  1.0000
  In  In1165    1.0  0.3421052630263158  0.2424242425  0.8103706999999999  1.0000
  In  In1166    1.0  0.35526315802631575  0.2348484847727273  0.1896293  1.0000
  Se  Se1747    1.0  0.3421052630263158  0.2424242425  0.32365471999999995  1.0000
  Se  Se1748    1.0  0.35526315802631575  0.2348484847727273  0.6763452799999999  1.0000
  Se  Se1749    1.0  0.3421052631578947  0.2272727272727273  0.0  1.0000
  In  In1167    1.0  0.34210526328947366  0.2575757575  0.1896293  1.0000
  Se  Se1750    1.0  0.34210526328947366  0.2575757575  0.6763452799999999  1.0000
  In  In1168    1.0  0.35526315776315787  0.2651515152272727  0.8103706999999999  1.0000
  Se  Se1751    1.0  0.35526315776315787  0.2651515152272727  0.32365471999999995  1.0000
  Se  Se1752    1.0  0.35526315789473684  0.25  0.0  1.0000
  In  In1169    1.0  0.3421052630263158  0.28787878795454547  0.8103706999999999  1.0000
  In  In1170    1.0  0.35526315802631575  0.28030303022727276  0.1896293  1.0000
  Se  Se1753    1.0  0.3421052630263158  0.28787878795454547  0.32365471999999995  1.0000
  Se  Se1754    1.0  0.35526315802631575  0.28030303022727276  0.6763452799999999  1.0000
  Se  Se1755    1.0  0.3421052631578947  0.27272727272727276  0.0  1.0000
  In  In1171    1.0  0.34210526328947366  0.3030303029545455  0.1896293  1.0000
  Se  Se1756    1.0  0.34210526328947366  0.3030303029545455  0.6763452799999999  1.0000
  In  In1172    1.0  0.35526315776315787  0.3106060606818183  0.8103706999999999  1.0000
  Se  Se1757    1.0  0.35526315776315787  0.3106060606818183  0.32365471999999995  1.0000
  Se  Se1758    1.0  0.35526315789473684  0.2954545454545455  0.0  1.0000
  In  In1173    1.0  0.3421052630263158  0.33333333340909094  0.8103706999999999  1.0000
  In  In1174    1.0  0.35526315802631575  0.32575757568181823  0.1896293  1.0000
  Se  Se1759    1.0  0.3421052630263158  0.33333333340909094  0.32365471999999995  1.0000
  Se  Se1760    1.0  0.35526315802631575  0.32575757568181823  0.6763452799999999  1.0000
  Se  Se1761    1.0  0.3421052631578947  0.31818181818181823  0.0  1.0000
  In  In1175    1.0  0.34210526328947366  0.34848484840909094  0.1896293  1.0000
  Se  Se1762    1.0  0.34210526328947366  0.34848484840909094  0.6763452799999999  1.0000
  In  In1176    1.0  0.35526315776315787  0.3560606061363637  0.8103706999999999  1.0000
  Se  Se1763    1.0  0.35526315776315787  0.3560606061363637  0.32365471999999995  1.0000
  Se  Se1764    1.0  0.35526315789473684  0.34090909090909094  0.0  1.0000
  In  In1177    1.0  0.3421052630263158  0.3787878788636364  0.8103706999999999  1.0000
  In  In1178    1.0  0.35526315802631575  0.3712121211363637  0.1896293  1.0000
  Se  Se1765    1.0  0.3421052630263158  0.3787878788636364  0.32365471999999995  1.0000
  Se  Se1766    1.0  0.35526315802631575  0.3712121211363637  0.6763452799999999  1.0000
  Se  Se1767    1.0  0.3421052631578947  0.36363636363636365  0.0  1.0000
  In  In1179    1.0  0.34210526328947366  0.3939393938636364  0.1896293  1.0000
  Se  Se1768    1.0  0.34210526328947366  0.3939393938636364  0.6763452799999999  1.0000
  In  In1180    1.0  0.35526315776315787  0.40151515159090917  0.8103706999999999  1.0000
  Se  Se1769    1.0  0.35526315776315787  0.40151515159090917  0.32365471999999995  1.0000
  Se  Se1770    1.0  0.35526315789473684  0.3863636363636364  0.0  1.0000
  In  In1181    1.0  0.3421052630263158  0.4242424243181818  0.8103706999999999  1.0000
  In  In1182    1.0  0.35526315802631575  0.4166666665909091  0.1896293  1.0000
  Se  Se1771    1.0  0.3421052630263158  0.4242424243181818  0.32365471999999995  1.0000
  Se  Se1772    1.0  0.35526315802631575  0.4166666665909091  0.6763452799999999  1.0000
  Se  Se1773    1.0  0.3421052631578947  0.4090909090909091  0.0  1.0000
  In  In1183    1.0  0.34210526328947366  0.4393939393181818  0.1896293  1.0000
  Se  Se1774    1.0  0.34210526328947366  0.4393939393181818  0.6763452799999999  1.0000
  In  In1184    1.0  0.35526315776315787  0.4469696970454546  0.8103706999999999  1.0000
  Se  Se1775    1.0  0.35526315776315787  0.4469696970454546  0.32365471999999995  1.0000
  Se  Se1776    1.0  0.35526315789473684  0.4318181818181819  0.0  1.0000
  In  In1185    1.0  0.3421052630263158  0.4696969697727273  0.8103706999999999  1.0000
  In  In1186    1.0  0.35526315802631575  0.46212121204545453  0.1896293  1.0000
  Se  Se1777    1.0  0.3421052630263158  0.4696969697727273  0.32365471999999995  1.0000
  Se  Se1778    1.0  0.35526315802631575  0.46212121204545453  0.6763452799999999  1.0000
  Se  Se1779    1.0  0.3421052631578947  0.4545454545454546  0.0  1.0000
  In  In1187    1.0  0.34210526328947366  0.4848484847727273  0.1896293  1.0000
  Se  Se1780    1.0  0.34210526328947366  0.4848484847727273  0.6763452799999999  1.0000
  In  In1188    1.0  0.35526315776315787  0.49242424250000005  0.8103706999999999  1.0000
  Se  Se1781    1.0  0.35526315776315787  0.49242424250000005  0.32365471999999995  1.0000
  Se  Se1782    1.0  0.35526315789473684  0.47727272727272735  0.0  1.0000
  In  In1189    1.0  0.3421052630263158  0.5151515152272728  0.8103706999999999  1.0000
  In  In1190    1.0  0.35526315802631575  0.5075757575  0.1896293  1.0000
  Se  Se1783    1.0  0.3421052630263158  0.5151515152272728  0.32365471999999995  1.0000
  Se  Se1784    1.0  0.35526315802631575  0.5075757575  0.6763452799999999  1.0000
  Se  Se1785    1.0  0.3421052631578947  0.5  0.0  1.0000
  In  In1191    1.0  0.34210526328947366  0.5303030302272728  0.1896293  1.0000
  Se  Se1786    1.0  0.34210526328947366  0.5303030302272728  0.6763452799999999  1.0000
  In  In1192    1.0  0.35526315776315787  0.5378787879545455  0.8103706999999999  1.0000
  Se  Se1787    1.0  0.35526315776315787  0.5378787879545455  0.32365471999999995  1.0000
  Se  Se1788    1.0  0.35526315789473684  0.5227272727272728  0.0  1.0000
  In  In1193    1.0  0.3421052630263158  0.5606060606818183  0.8103706999999999  1.0000
  In  In1194    1.0  0.35526315802631575  0.5530303029545455  0.1896293  1.0000
  Se  Se1789    1.0  0.3421052630263158  0.5606060606818183  0.32365471999999995  1.0000
  Se  Se1790    1.0  0.35526315802631575  0.5530303029545455  0.6763452799999999  1.0000
  Se  Se1791    1.0  0.3421052631578947  0.5454545454545455  0.0  1.0000
  In  In1195    1.0  0.34210526328947366  0.5757575756818183  0.1896293  1.0000
  Se  Se1792    1.0  0.34210526328947366  0.5757575756818183  0.6763452799999999  1.0000
  In  In1196    1.0  0.35526315776315787  0.583333333409091  0.8103706999999999  1.0000
  Se  Se1793    1.0  0.35526315776315787  0.583333333409091  0.32365471999999995  1.0000
  Se  Se1794    1.0  0.35526315789473684  0.5681818181818183  0.0  1.0000
  In  In1197    1.0  0.3421052630263158  0.6060606061363637  0.8103706999999999  1.0000
  In  In1198    1.0  0.35526315802631575  0.598484848409091  0.1896293  1.0000
  Se  Se1795    1.0  0.3421052630263158  0.6060606061363637  0.32365471999999995  1.0000
  Se  Se1796    1.0  0.35526315802631575  0.598484848409091  0.6763452799999999  1.0000
  Se  Se1797    1.0  0.3421052631578947  0.590909090909091  0.0  1.0000
  In  In1199    1.0  0.34210526328947366  0.6212121211363637  0.1896293  1.0000
  Se  Se1798    1.0  0.34210526328947366  0.6212121211363637  0.6763452799999999  1.0000
  In  In1200    1.0  0.35526315776315787  0.6287878788636365  0.8103706999999999  1.0000
  Se  Se1799    1.0  0.35526315776315787  0.6287878788636365  0.32365471999999995  1.0000
  Se  Se1800    1.0  0.35526315789473684  0.6136363636363638  0.0  1.0000
  In  In1201    1.0  0.3421052630263158  0.6515151515909091  0.8103706999999999  1.0000
  In  In1202    1.0  0.35526315802631575  0.6439393938636364  0.1896293  1.0000
  Se  Se1801    1.0  0.3421052630263158  0.6515151515909091  0.32365471999999995  1.0000
  Se  Se1802    1.0  0.35526315802631575  0.6439393938636364  0.6763452799999999  1.0000
  Se  Se1803    1.0  0.3421052631578947  0.6363636363636365  0.0  1.0000
  In  In1203    1.0  0.34210526328947366  0.6666666665909092  0.1896293  1.0000
  Se  Se1804    1.0  0.34210526328947366  0.6666666665909092  0.6763452799999999  1.0000
  In  In1204    1.0  0.35526315776315787  0.6742424243181819  0.8103706999999999  1.0000
  Se  Se1805    1.0  0.35526315776315787  0.6742424243181819  0.32365471999999995  1.0000
  Se  Se1806    1.0  0.35526315789473684  0.6590909090909092  0.0  1.0000
  In  In1205    1.0  0.3421052630263158  0.6969696970454546  0.8103706999999999  1.0000
  In  In1206    1.0  0.35526315802631575  0.6893939393181818  0.1896293  1.0000
  Se  Se1807    1.0  0.3421052630263158  0.6969696970454546  0.32365471999999995  1.0000
  Se  Se1808    1.0  0.35526315802631575  0.6893939393181818  0.6763452799999999  1.0000
  Se  Se1809    1.0  0.3421052631578947  0.6818181818181819  0.0  1.0000
  In  In1207    1.0  0.34210526328947366  0.7121212120454546  0.1896293  1.0000
  Se  Se1810    1.0  0.34210526328947366  0.7121212120454546  0.6763452799999999  1.0000
  In  In1208    1.0  0.35526315776315787  0.7196969697727273  0.8103706999999999  1.0000
  Se  Se1811    1.0  0.35526315776315787  0.7196969697727273  0.32365471999999995  1.0000
  Se  Se1812    1.0  0.35526315789473684  0.7045454545454547  0.0  1.0000
  In  In1209    1.0  0.3421052630263158  0.7424242425  0.8103706999999999  1.0000
  In  In1210    1.0  0.35526315802631575  0.7348484847727274  0.1896293  1.0000
  Se  Se1813    1.0  0.3421052630263158  0.7424242425  0.32365471999999995  1.0000
  Se  Se1814    1.0  0.35526315802631575  0.7348484847727274  0.6763452799999999  1.0000
  Se  Se1815    1.0  0.3421052631578947  0.7272727272727273  0.0  1.0000
  In  In1211    1.0  0.34210526328947366  0.7575757575000001  0.1896293  1.0000
  Se  Se1816    1.0  0.34210526328947366  0.7575757575000001  0.6763452799999999  1.0000
  In  In1212    1.0  0.35526315776315787  0.7651515152272729  0.8103706999999999  1.0000
  Se  Se1817    1.0  0.35526315776315787  0.7651515152272729  0.32365471999999995  1.0000
  Se  Se1818    1.0  0.35526315789473684  0.7500000000000001  0.0  1.0000
  In  In1213    1.0  0.3421052630263158  0.7878787879545455  0.8103706999999999  1.0000
  In  In1214    1.0  0.35526315802631575  0.7803030302272728  0.1896293  1.0000
  Se  Se1819    1.0  0.3421052630263158  0.7878787879545455  0.32365471999999995  1.0000
  Se  Se1820    1.0  0.35526315802631575  0.7803030302272728  0.6763452799999999  1.0000
  Se  Se1821    1.0  0.3421052631578947  0.7727272727272728  0.0  1.0000
  In  In1215    1.0  0.34210526328947366  0.8030303029545455  0.1896293  1.0000
  Se  Se1822    1.0  0.34210526328947366  0.8030303029545455  0.6763452799999999  1.0000
  In  In1216    1.0  0.35526315776315787  0.8106060606818183  0.8103706999999999  1.0000
  Se  Se1823    1.0  0.35526315776315787  0.8106060606818183  0.32365471999999995  1.0000
  Se  Se1824    1.0  0.35526315789473684  0.7954545454545455  0.0  1.0000
  In  In1217    1.0  0.3421052630263158  0.833333333409091  0.8103706999999999  1.0000
  In  In1218    1.0  0.35526315802631575  0.8257575756818182  0.1896293  1.0000
  Se  Se1825    1.0  0.3421052630263158  0.833333333409091  0.32365471999999995  1.0000
  Se  Se1826    1.0  0.35526315802631575  0.8257575756818182  0.6763452799999999  1.0000
  Se  Se1827    1.0  0.3421052631578947  0.8181818181818182  0.0  1.0000
  In  In1219    1.0  0.34210526328947366  0.848484848409091  0.1896293  1.0000
  Se  Se1828    1.0  0.34210526328947366  0.848484848409091  0.6763452799999999  1.0000
  In  In1220    1.0  0.35526315776315787  0.8560606061363636  0.8103706999999999  1.0000
  Se  Se1829    1.0  0.35526315776315787  0.8560606061363636  0.32365471999999995  1.0000
  Se  Se1830    1.0  0.35526315789473684  0.840909090909091  0.0  1.0000
  In  In1221    1.0  0.3421052630263158  0.8787878788636366  0.8103706999999999  1.0000
  In  In1222    1.0  0.35526315802631575  0.8712121211363637  0.1896293  1.0000
  Se  Se1831    1.0  0.3421052630263158  0.8787878788636366  0.32365471999999995  1.0000
  Se  Se1832    1.0  0.35526315802631575  0.8712121211363637  0.6763452799999999  1.0000
  Se  Se1833    1.0  0.3421052631578947  0.8636363636363638  0.0  1.0000
  In  In1223    1.0  0.34210526328947366  0.8939393938636365  0.1896293  1.0000
  Se  Se1834    1.0  0.34210526328947366  0.8939393938636365  0.6763452799999999  1.0000
  In  In1224    1.0  0.35526315776315787  0.9015151515909092  0.8103706999999999  1.0000
  Se  Se1835    1.0  0.35526315776315787  0.9015151515909092  0.32365471999999995  1.0000
  Se  Se1836    1.0  0.35526315789473684  0.8863636363636366  0.0  1.0000
  In  In1225    1.0  0.3421052630263158  0.9242424243181819  0.8103706999999999  1.0000
  In  In1226    1.0  0.35526315802631575  0.9166666665909091  0.1896293  1.0000
  Se  Se1837    1.0  0.3421052630263158  0.9242424243181819  0.32365471999999995  1.0000
  Se  Se1838    1.0  0.35526315802631575  0.9166666665909091  0.6763452799999999  1.0000
  Se  Se1839    1.0  0.3421052631578947  0.9090909090909092  0.0  1.0000
  In  In1227    1.0  0.34210526328947366  0.9393939393181818  0.1896293  1.0000
  Se  Se1840    1.0  0.34210526328947366  0.9393939393181818  0.6763452799999999  1.0000
  In  In1228    1.0  0.35526315776315787  0.9469696970454545  0.8103706999999999  1.0000
  Se  Se1841    1.0  0.35526315776315787  0.9469696970454545  0.32365471999999995  1.0000
  Se  Se1842    1.0  0.35526315789473684  0.9318181818181819  0.0  1.0000
  In  In1229    1.0  0.3421052630263158  0.9696969697727275  0.8103706999999999  1.0000
  In  In1230    1.0  0.35526315802631575  0.9621212120454546  0.1896293  1.0000
  Se  Se1843    1.0  0.3421052630263158  0.9696969697727275  0.32365471999999995  1.0000
  Se  Se1844    1.0  0.35526315802631575  0.9621212120454546  0.6763452799999999  1.0000
  Se  Se1845    1.0  0.3421052631578947  0.9545454545454547  0.0  1.0000
  In  In1231    1.0  0.34210526328947366  0.9848484847727275  0.1896293  1.0000
  Se  Se1846    1.0  0.34210526328947366  0.9848484847727275  0.6763452799999999  1.0000
  In  In1232    1.0  0.35526315776315787  0.9924242425  0.8103706999999999  1.0000
  Se  Se1847    1.0  0.35526315776315787  0.9924242425  0.32365471999999995  1.0000
  Se  Se1848    1.0  0.35526315789473684  0.9772727272727274  0.0  1.0000
  In  In1233    1.0  0.36842105249999996  0.01515151522727273  0.8103706999999999  1.0000
  In  In1234    1.0  0.38157894749999993  0.0075757575  0.1896293  1.0000
  Se  Se1849    1.0  0.36842105249999996  0.01515151522727273  0.32365471999999995  1.0000
  Se  Se1850    1.0  0.38157894749999993  0.0075757575  0.6763452799999999  1.0000
  Se  Se1851    1.0  0.3684210526315789  0.0  0.0  1.0000
  In  In1235    1.0  0.36842105276315784  0.030303030227272734  0.1896293  1.0000
  Se  Se1852    1.0  0.36842105276315784  0.030303030227272734  0.6763452799999999  1.0000
  In  In1236    1.0  0.38157894723684205  0.03787878795454546  0.8103706999999999  1.0000
  Se  Se1853    1.0  0.38157894723684205  0.03787878795454546  0.32365471999999995  1.0000
  Se  Se1854    1.0  0.381578947368421  0.022727272727272728  0.0  1.0000
  In  In1237    1.0  0.36842105249999996  0.06060606068181818  0.8103706999999999  1.0000
  In  In1238    1.0  0.38157894749999993  0.05303030295454546  0.1896293  1.0000
  Se  Se1855    1.0  0.36842105249999996  0.06060606068181818  0.32365471999999995  1.0000
  Se  Se1856    1.0  0.38157894749999993  0.05303030295454546  0.6763452799999999  1.0000
  Se  Se1857    1.0  0.3684210526315789  0.045454545454545456  0.0  1.0000
  In  In1239    1.0  0.36842105276315784  0.07575757568181819  0.1896293  1.0000
  Se  Se1858    1.0  0.36842105276315784  0.07575757568181819  0.6763452799999999  1.0000
  In  In1240    1.0  0.38157894723684205  0.08333333340909092  0.8103706999999999  1.0000
  Se  Se1859    1.0  0.38157894723684205  0.08333333340909092  0.32365471999999995  1.0000
  Se  Se1860    1.0  0.381578947368421  0.06818181818181819  0.0  1.0000
  In  In1241    1.0  0.36842105249999996  0.10606060613636366  0.8103706999999999  1.0000
  In  In1242    1.0  0.38157894749999993  0.09848484840909091  0.1896293  1.0000
  Se  Se1861    1.0  0.36842105249999996  0.10606060613636366  0.32365471999999995  1.0000
  Se  Se1862    1.0  0.38157894749999993  0.09848484840909091  0.6763452799999999  1.0000
  Se  Se1863    1.0  0.3684210526315789  0.09090909090909091  0.0  1.0000
  In  In1243    1.0  0.36842105276315784  0.12121212113636365  0.1896293  1.0000
  Se  Se1864    1.0  0.36842105276315784  0.12121212113636365  0.6763452799999999  1.0000
  In  In1244    1.0  0.38157894723684205  0.12878787886363638  0.8103706999999999  1.0000
  Se  Se1865    1.0  0.38157894723684205  0.12878787886363638  0.32365471999999995  1.0000
  Se  Se1866    1.0  0.381578947368421  0.11363636363636365  0.0  1.0000
  In  In1245    1.0  0.36842105249999996  0.15151515159090911  0.8103706999999999  1.0000
  In  In1246    1.0  0.38157894749999993  0.1439393938636364  0.1896293  1.0000
  Se  Se1867    1.0  0.36842105249999996  0.15151515159090911  0.32365471999999995  1.0000
  Se  Se1868    1.0  0.38157894749999993  0.1439393938636364  0.6763452799999999  1.0000
  Se  Se1869    1.0  0.3684210526315789  0.13636363636363638  0.0  1.0000
  In  In1247    1.0  0.36842105276315784  0.16666666659090912  0.1896293  1.0000
  Se  Se1870    1.0  0.36842105276315784  0.16666666659090912  0.6763452799999999  1.0000
  In  In1248    1.0  0.38157894723684205  0.17424242431818185  0.8103706999999999  1.0000
  Se  Se1871    1.0  0.38157894723684205  0.17424242431818185  0.32365471999999995  1.0000
  Se  Se1872    1.0  0.381578947368421  0.15909090909090912  0.0  1.0000
  In  In1249    1.0  0.36842105249999996  0.19696969704545458  0.8103706999999999  1.0000
  In  In1250    1.0  0.38157894749999993  0.18939393931818185  0.1896293  1.0000
  Se  Se1873    1.0  0.36842105249999996  0.19696969704545458  0.32365471999999995  1.0000
  Se  Se1874    1.0  0.38157894749999993  0.18939393931818185  0.6763452799999999  1.0000
  Se  Se1875    1.0  0.3684210526315789  0.18181818181818182  0.0  1.0000
  In  In1251    1.0  0.36842105276315784  0.21212121204545456  0.1896293  1.0000
  Se  Se1876    1.0  0.36842105276315784  0.21212121204545456  0.6763452799999999  1.0000
  In  In1252    1.0  0.38157894723684205  0.21969696977272726  0.8103706999999999  1.0000
  Se  Se1877    1.0  0.38157894723684205  0.21969696977272726  0.32365471999999995  1.0000
  Se  Se1878    1.0  0.381578947368421  0.20454545454545456  0.0  1.0000
  In  In1253    1.0  0.36842105249999996  0.2424242425  0.8103706999999999  1.0000
  In  In1254    1.0  0.38157894749999993  0.2348484847727273  0.1896293  1.0000
  Se  Se1879    1.0  0.36842105249999996  0.2424242425  0.32365471999999995  1.0000
  Se  Se1880    1.0  0.38157894749999993  0.2348484847727273  0.6763452799999999  1.0000
  Se  Se1881    1.0  0.3684210526315789  0.2272727272727273  0.0  1.0000
  In  In1255    1.0  0.36842105276315784  0.2575757575  0.1896293  1.0000
  Se  Se1882    1.0  0.36842105276315784  0.2575757575  0.6763452799999999  1.0000
  In  In1256    1.0  0.38157894723684205  0.2651515152272727  0.8103706999999999  1.0000
  Se  Se1883    1.0  0.38157894723684205  0.2651515152272727  0.32365471999999995  1.0000
  Se  Se1884    1.0  0.381578947368421  0.25  0.0  1.0000
  In  In1257    1.0  0.36842105249999996  0.28787878795454547  0.8103706999999999  1.0000
  In  In1258    1.0  0.38157894749999993  0.28030303022727276  0.1896293  1.0000
  Se  Se1885    1.0  0.36842105249999996  0.28787878795454547  0.32365471999999995  1.0000
  Se  Se1886    1.0  0.38157894749999993  0.28030303022727276  0.6763452799999999  1.0000
  Se  Se1887    1.0  0.3684210526315789  0.27272727272727276  0.0  1.0000
  In  In1259    1.0  0.36842105276315784  0.3030303029545455  0.1896293  1.0000
  Se  Se1888    1.0  0.36842105276315784  0.3030303029545455  0.6763452799999999  1.0000
  In  In1260    1.0  0.38157894723684205  0.3106060606818183  0.8103706999999999  1.0000
  Se  Se1889    1.0  0.38157894723684205  0.3106060606818183  0.32365471999999995  1.0000
  Se  Se1890    1.0  0.381578947368421  0.2954545454545455  0.0  1.0000
  In  In1261    1.0  0.36842105249999996  0.33333333340909094  0.8103706999999999  1.0000
  In  In1262    1.0  0.38157894749999993  0.32575757568181823  0.1896293  1.0000
  Se  Se1891    1.0  0.36842105249999996  0.33333333340909094  0.32365471999999995  1.0000
  Se  Se1892    1.0  0.38157894749999993  0.32575757568181823  0.6763452799999999  1.0000
  Se  Se1893    1.0  0.3684210526315789  0.31818181818181823  0.0  1.0000
  In  In1263    1.0  0.36842105276315784  0.34848484840909094  0.1896293  1.0000
  Se  Se1894    1.0  0.36842105276315784  0.34848484840909094  0.6763452799999999  1.0000
  In  In1264    1.0  0.38157894723684205  0.3560606061363637  0.8103706999999999  1.0000
  Se  Se1895    1.0  0.38157894723684205  0.3560606061363637  0.32365471999999995  1.0000
  Se  Se1896    1.0  0.381578947368421  0.34090909090909094  0.0  1.0000
  In  In1265    1.0  0.36842105249999996  0.3787878788636364  0.8103706999999999  1.0000
  In  In1266    1.0  0.38157894749999993  0.3712121211363637  0.1896293  1.0000
  Se  Se1897    1.0  0.36842105249999996  0.3787878788636364  0.32365471999999995  1.0000
  Se  Se1898    1.0  0.38157894749999993  0.3712121211363637  0.6763452799999999  1.0000
  Se  Se1899    1.0  0.3684210526315789  0.36363636363636365  0.0  1.0000
  In  In1267    1.0  0.36842105276315784  0.3939393938636364  0.1896293  1.0000
  Se  Se1900    1.0  0.36842105276315784  0.3939393938636364  0.6763452799999999  1.0000
  In  In1268    1.0  0.38157894723684205  0.40151515159090917  0.8103706999999999  1.0000
  Se  Se1901    1.0  0.38157894723684205  0.40151515159090917  0.32365471999999995  1.0000
  Se  Se1902    1.0  0.381578947368421  0.3863636363636364  0.0  1.0000
  In  In1269    1.0  0.36842105249999996  0.4242424243181818  0.8103706999999999  1.0000
  In  In1270    1.0  0.38157894749999993  0.4166666665909091  0.1896293  1.0000
  Se  Se1903    1.0  0.36842105249999996  0.4242424243181818  0.32365471999999995  1.0000
  Se  Se1904    1.0  0.38157894749999993  0.4166666665909091  0.6763452799999999  1.0000
  Se  Se1905    1.0  0.3684210526315789  0.4090909090909091  0.0  1.0000
  In  In1271    1.0  0.36842105276315784  0.4393939393181818  0.1896293  1.0000
  Se  Se1906    1.0  0.36842105276315784  0.4393939393181818  0.6763452799999999  1.0000
  In  In1272    1.0  0.38157894723684205  0.4469696970454546  0.8103706999999999  1.0000
  Se  Se1907    1.0  0.38157894723684205  0.4469696970454546  0.32365471999999995  1.0000
  Se  Se1908    1.0  0.381578947368421  0.4318181818181819  0.0  1.0000
  In  In1273    1.0  0.36842105249999996  0.4696969697727273  0.8103706999999999  1.0000
  In  In1274    1.0  0.38157894749999993  0.46212121204545453  0.1896293  1.0000
  Se  Se1909    1.0  0.36842105249999996  0.4696969697727273  0.32365471999999995  1.0000
  Se  Se1910    1.0  0.38157894749999993  0.46212121204545453  0.6763452799999999  1.0000
  Se  Se1911    1.0  0.3684210526315789  0.4545454545454546  0.0  1.0000
  In  In1275    1.0  0.36842105276315784  0.4848484847727273  0.1896293  1.0000
  Se  Se1912    1.0  0.36842105276315784  0.4848484847727273  0.6763452799999999  1.0000
  In  In1276    1.0  0.38157894723684205  0.49242424250000005  0.8103706999999999  1.0000
  Se  Se1913    1.0  0.38157894723684205  0.49242424250000005  0.32365471999999995  1.0000
  Se  Se1914    1.0  0.381578947368421  0.47727272727272735  0.0  1.0000
  In  In1277    1.0  0.36842105249999996  0.5151515152272728  0.8103706999999999  1.0000
  In  In1278    1.0  0.38157894749999993  0.5075757575  0.1896293  1.0000
  Se  Se1915    1.0  0.36842105249999996  0.5151515152272728  0.32365471999999995  1.0000
  Se  Se1916    1.0  0.38157894749999993  0.5075757575  0.6763452799999999  1.0000
  Se  Se1917    1.0  0.3684210526315789  0.5  0.0  1.0000
  In  In1279    1.0  0.36842105276315784  0.5303030302272728  0.1896293  1.0000
  Se  Se1918    1.0  0.36842105276315784  0.5303030302272728  0.6763452799999999  1.0000
  In  In1280    1.0  0.38157894723684205  0.5378787879545455  0.8103706999999999  1.0000
  Se  Se1919    1.0  0.38157894723684205  0.5378787879545455  0.32365471999999995  1.0000
  Se  Se1920    1.0  0.381578947368421  0.5227272727272728  0.0  1.0000
  In  In1281    1.0  0.36842105249999996  0.5606060606818183  0.8103706999999999  1.0000
  In  In1282    1.0  0.38157894749999993  0.5530303029545455  0.1896293  1.0000
  Se  Se1921    1.0  0.36842105249999996  0.5606060606818183  0.32365471999999995  1.0000
  Se  Se1922    1.0  0.38157894749999993  0.5530303029545455  0.6763452799999999  1.0000
  Se  Se1923    1.0  0.3684210526315789  0.5454545454545455  0.0  1.0000
  In  In1283    1.0  0.36842105276315784  0.5757575756818183  0.1896293  1.0000
  Se  Se1924    1.0  0.36842105276315784  0.5757575756818183  0.6763452799999999  1.0000
  In  In1284    1.0  0.38157894723684205  0.583333333409091  0.8103706999999999  1.0000
  Se  Se1925    1.0  0.38157894723684205  0.583333333409091  0.32365471999999995  1.0000
  Se  Se1926    1.0  0.381578947368421  0.5681818181818183  0.0  1.0000
  In  In1285    1.0  0.36842105249999996  0.6060606061363637  0.8103706999999999  1.0000
  In  In1286    1.0  0.38157894749999993  0.598484848409091  0.1896293  1.0000
  Se  Se1927    1.0  0.36842105249999996  0.6060606061363637  0.32365471999999995  1.0000
  Se  Se1928    1.0  0.38157894749999993  0.598484848409091  0.6763452799999999  1.0000
  Se  Se1929    1.0  0.3684210526315789  0.590909090909091  0.0  1.0000
  In  In1287    1.0  0.36842105276315784  0.6212121211363637  0.1896293  1.0000
  Se  Se1930    1.0  0.36842105276315784  0.6212121211363637  0.6763452799999999  1.0000
  In  In1288    1.0  0.38157894723684205  0.6287878788636365  0.8103706999999999  1.0000
  Se  Se1931    1.0  0.38157894723684205  0.6287878788636365  0.32365471999999995  1.0000
  Se  Se1932    1.0  0.381578947368421  0.6136363636363638  0.0  1.0000
  In  In1289    1.0  0.36842105249999996  0.6515151515909091  0.8103706999999999  1.0000
  In  In1290    1.0  0.38157894749999993  0.6439393938636364  0.1896293  1.0000
  Se  Se1933    1.0  0.36842105249999996  0.6515151515909091  0.32365471999999995  1.0000
  Se  Se1934    1.0  0.38157894749999993  0.6439393938636364  0.6763452799999999  1.0000
  Se  Se1935    1.0  0.3684210526315789  0.6363636363636365  0.0  1.0000
  In  In1291    1.0  0.36842105276315784  0.6666666665909092  0.1896293  1.0000
  Se  Se1936    1.0  0.36842105276315784  0.6666666665909092  0.6763452799999999  1.0000
  In  In1292    1.0  0.38157894723684205  0.6742424243181819  0.8103706999999999  1.0000
  Se  Se1937    1.0  0.38157894723684205  0.6742424243181819  0.32365471999999995  1.0000
  Se  Se1938    1.0  0.381578947368421  0.6590909090909092  0.0  1.0000
  In  In1293    1.0  0.36842105249999996  0.6969696970454546  0.8103706999999999  1.0000
  In  In1294    1.0  0.38157894749999993  0.6893939393181818  0.1896293  1.0000
  Se  Se1939    1.0  0.36842105249999996  0.6969696970454546  0.32365471999999995  1.0000
  Se  Se1940    1.0  0.38157894749999993  0.6893939393181818  0.6763452799999999  1.0000
  Se  Se1941    1.0  0.3684210526315789  0.6818181818181819  0.0  1.0000
  In  In1295    1.0  0.36842105276315784  0.7121212120454546  0.1896293  1.0000
  Se  Se1942    1.0  0.36842105276315784  0.7121212120454546  0.6763452799999999  1.0000
  In  In1296    1.0  0.38157894723684205  0.7196969697727273  0.8103706999999999  1.0000
  Se  Se1943    1.0  0.38157894723684205  0.7196969697727273  0.32365471999999995  1.0000
  Se  Se1944    1.0  0.381578947368421  0.7045454545454547  0.0  1.0000
  In  In1297    1.0  0.36842105249999996  0.7424242425  0.8103706999999999  1.0000
  In  In1298    1.0  0.38157894749999993  0.7348484847727274  0.1896293  1.0000
  Se  Se1945    1.0  0.36842105249999996  0.7424242425  0.32365471999999995  1.0000
  Se  Se1946    1.0  0.38157894749999993  0.7348484847727274  0.6763452799999999  1.0000
  Se  Se1947    1.0  0.3684210526315789  0.7272727272727273  0.0  1.0000
  In  In1299    1.0  0.36842105276315784  0.7575757575000001  0.1896293  1.0000
  Se  Se1948    1.0  0.36842105276315784  0.7575757575000001  0.6763452799999999  1.0000
  In  In1300    1.0  0.38157894723684205  0.7651515152272729  0.8103706999999999  1.0000
  Se  Se1949    1.0  0.38157894723684205  0.7651515152272729  0.32365471999999995  1.0000
  Se  Se1950    1.0  0.381578947368421  0.7500000000000001  0.0  1.0000
  In  In1301    1.0  0.36842105249999996  0.7878787879545455  0.8103706999999999  1.0000
  In  In1302    1.0  0.38157894749999993  0.7803030302272728  0.1896293  1.0000
  Se  Se1951    1.0  0.36842105249999996  0.7878787879545455  0.32365471999999995  1.0000
  Se  Se1952    1.0  0.38157894749999993  0.7803030302272728  0.6763452799999999  1.0000
  Se  Se1953    1.0  0.3684210526315789  0.7727272727272728  0.0  1.0000
  In  In1303    1.0  0.36842105276315784  0.8030303029545455  0.1896293  1.0000
  Se  Se1954    1.0  0.36842105276315784  0.8030303029545455  0.6763452799999999  1.0000
  In  In1304    1.0  0.38157894723684205  0.8106060606818183  0.8103706999999999  1.0000
  Se  Se1955    1.0  0.38157894723684205  0.8106060606818183  0.32365471999999995  1.0000
  Se  Se1956    1.0  0.381578947368421  0.7954545454545455  0.0  1.0000
  In  In1305    1.0  0.36842105249999996  0.833333333409091  0.8103706999999999  1.0000
  In  In1306    1.0  0.38157894749999993  0.8257575756818182  0.1896293  1.0000
  Se  Se1957    1.0  0.36842105249999996  0.833333333409091  0.32365471999999995  1.0000
  Se  Se1958    1.0  0.38157894749999993  0.8257575756818182  0.6763452799999999  1.0000
  Se  Se1959    1.0  0.3684210526315789  0.8181818181818182  0.0  1.0000
  In  In1307    1.0  0.36842105276315784  0.848484848409091  0.1896293  1.0000
  Se  Se1960    1.0  0.36842105276315784  0.848484848409091  0.6763452799999999  1.0000
  In  In1308    1.0  0.38157894723684205  0.8560606061363636  0.8103706999999999  1.0000
  Se  Se1961    1.0  0.38157894723684205  0.8560606061363636  0.32365471999999995  1.0000
  Se  Se1962    1.0  0.381578947368421  0.840909090909091  0.0  1.0000
  In  In1309    1.0  0.36842105249999996  0.8787878788636366  0.8103706999999999  1.0000
  In  In1310    1.0  0.38157894749999993  0.8712121211363637  0.1896293  1.0000
  Se  Se1963    1.0  0.36842105249999996  0.8787878788636366  0.32365471999999995  1.0000
  Se  Se1964    1.0  0.38157894749999993  0.8712121211363637  0.6763452799999999  1.0000
  Se  Se1965    1.0  0.3684210526315789  0.8636363636363638  0.0  1.0000
  In  In1311    1.0  0.36842105276315784  0.8939393938636365  0.1896293  1.0000
  Se  Se1966    1.0  0.36842105276315784  0.8939393938636365  0.6763452799999999  1.0000
  In  In1312    1.0  0.38157894723684205  0.9015151515909092  0.8103706999999999  1.0000
  Se  Se1967    1.0  0.38157894723684205  0.9015151515909092  0.32365471999999995  1.0000
  Se  Se1968    1.0  0.381578947368421  0.8863636363636366  0.0  1.0000
  In  In1313    1.0  0.36842105249999996  0.9242424243181819  0.8103706999999999  1.0000
  In  In1314    1.0  0.38157894749999993  0.9166666665909091  0.1896293  1.0000
  Se  Se1969    1.0  0.36842105249999996  0.9242424243181819  0.32365471999999995  1.0000
  Se  Se1970    1.0  0.38157894749999993  0.9166666665909091  0.6763452799999999  1.0000
  Se  Se1971    1.0  0.3684210526315789  0.9090909090909092  0.0  1.0000
  In  In1315    1.0  0.36842105276315784  0.9393939393181818  0.1896293  1.0000
  Se  Se1972    1.0  0.36842105276315784  0.9393939393181818  0.6763452799999999  1.0000
  In  In1316    1.0  0.38157894723684205  0.9469696970454545  0.8103706999999999  1.0000
  Se  Se1973    1.0  0.38157894723684205  0.9469696970454545  0.32365471999999995  1.0000
  Se  Se1974    1.0  0.381578947368421  0.9318181818181819  0.0  1.0000
  In  In1317    1.0  0.36842105249999996  0.9696969697727275  0.8103706999999999  1.0000
  In  In1318    1.0  0.38157894749999993  0.9621212120454546  0.1896293  1.0000
  Se  Se1975    1.0  0.36842105249999996  0.9696969697727275  0.32365471999999995  1.0000
  Se  Se1976    1.0  0.38157894749999993  0.9621212120454546  0.6763452799999999  1.0000
  Se  Se1977    1.0  0.3684210526315789  0.9545454545454547  0.0  1.0000
  In  In1319    1.0  0.36842105276315784  0.9848484847727275  0.1896293  1.0000
  Se  Se1978    1.0  0.36842105276315784  0.9848484847727275  0.6763452799999999  1.0000
  In  In1320    1.0  0.38157894723684205  0.9924242425  0.8103706999999999  1.0000
  Se  Se1979    1.0  0.38157894723684205  0.9924242425  0.32365471999999995  1.0000
  Se  Se1980    1.0  0.381578947368421  0.9772727272727274  0.0  1.0000
  In  In1321    1.0  0.3947368419736842  0.01515151522727273  0.8103706999999999  1.0000
  In  In1322    1.0  0.40789473697368417  0.0075757575  0.1896293  1.0000
  Se  Se1981    1.0  0.3947368419736842  0.01515151522727273  0.32365471999999995  1.0000
  Se  Se1982    1.0  0.40789473697368417  0.0075757575  0.6763452799999999  1.0000
  Se  Se1983    1.0  0.39473684210526316  0.0  0.0  1.0000
  In  In1323    1.0  0.3947368422368421  0.030303030227272734  0.1896293  1.0000
  Se  Se1984    1.0  0.3947368422368421  0.030303030227272734  0.6763452799999999  1.0000
  In  In1324    1.0  0.4078947367105263  0.03787878795454546  0.8103706999999999  1.0000
  Se  Se1985    1.0  0.4078947367105263  0.03787878795454546  0.32365471999999995  1.0000
  Se  Se1986    1.0  0.40789473684210525  0.022727272727272728  0.0  1.0000
  In  In1325    1.0  0.3947368419736842  0.06060606068181818  0.8103706999999999  1.0000
  In  In1326    1.0  0.40789473697368417  0.05303030295454546  0.1896293  1.0000
  Se  Se1987    1.0  0.3947368419736842  0.06060606068181818  0.32365471999999995  1.0000
  Se  Se1988    1.0  0.40789473697368417  0.05303030295454546  0.6763452799999999  1.0000
  Se  Se1989    1.0  0.39473684210526316  0.045454545454545456  0.0  1.0000
  In  In1327    1.0  0.3947368422368421  0.07575757568181819  0.1896293  1.0000
  Se  Se1990    1.0  0.3947368422368421  0.07575757568181819  0.6763452799999999  1.0000
  In  In1328    1.0  0.4078947367105263  0.08333333340909092  0.8103706999999999  1.0000
  Se  Se1991    1.0  0.4078947367105263  0.08333333340909092  0.32365471999999995  1.0000
  Se  Se1992    1.0  0.40789473684210525  0.06818181818181819  0.0  1.0000
  In  In1329    1.0  0.3947368419736842  0.10606060613636366  0.8103706999999999  1.0000
  In  In1330    1.0  0.40789473697368417  0.09848484840909091  0.1896293  1.0000
  Se  Se1993    1.0  0.3947368419736842  0.10606060613636366  0.32365471999999995  1.0000
  Se  Se1994    1.0  0.40789473697368417  0.09848484840909091  0.6763452799999999  1.0000
  Se  Se1995    1.0  0.39473684210526316  0.09090909090909091  0.0  1.0000
  In  In1331    1.0  0.3947368422368421  0.12121212113636365  0.1896293  1.0000
  Se  Se1996    1.0  0.3947368422368421  0.12121212113636365  0.6763452799999999  1.0000
  In  In1332    1.0  0.4078947367105263  0.12878787886363638  0.8103706999999999  1.0000
  Se  Se1997    1.0  0.4078947367105263  0.12878787886363638  0.32365471999999995  1.0000
  Se  Se1998    1.0  0.40789473684210525  0.11363636363636365  0.0  1.0000
  In  In1333    1.0  0.3947368419736842  0.15151515159090911  0.8103706999999999  1.0000
  In  In1334    1.0  0.40789473697368417  0.1439393938636364  0.1896293  1.0000
  Se  Se1999    1.0  0.3947368419736842  0.15151515159090911  0.32365471999999995  1.0000
  Se  Se2000    1.0  0.40789473697368417  0.1439393938636364  0.6763452799999999  1.0000
  Se  Se2001    1.0  0.39473684210526316  0.13636363636363638  0.0  1.0000
  In  In1335    1.0  0.3947368422368421  0.16666666659090912  0.1896293  1.0000
  Se  Se2002    1.0  0.3947368422368421  0.16666666659090912  0.6763452799999999  1.0000
  In  In1336    1.0  0.4078947367105263  0.17424242431818185  0.8103706999999999  1.0000
  Se  Se2003    1.0  0.4078947367105263  0.17424242431818185  0.32365471999999995  1.0000
  Se  Se2004    1.0  0.40789473684210525  0.15909090909090912  0.0  1.0000
  In  In1337    1.0  0.3947368419736842  0.19696969704545458  0.8103706999999999  1.0000
  In  In1338    1.0  0.40789473697368417  0.18939393931818185  0.1896293  1.0000
  Se  Se2005    1.0  0.3947368419736842  0.19696969704545458  0.32365471999999995  1.0000
  Se  Se2006    1.0  0.40789473697368417  0.18939393931818185  0.6763452799999999  1.0000
  Se  Se2007    1.0  0.39473684210526316  0.18181818181818182  0.0  1.0000
  In  In1339    1.0  0.3947368422368421  0.21212121204545456  0.1896293  1.0000
  Se  Se2008    1.0  0.3947368422368421  0.21212121204545456  0.6763452799999999  1.0000
  In  In1340    1.0  0.4078947367105263  0.21969696977272726  0.8103706999999999  1.0000
  Se  Se2009    1.0  0.4078947367105263  0.21969696977272726  0.32365471999999995  1.0000
  Se  Se2010    1.0  0.40789473684210525  0.20454545454545456  0.0  1.0000
  In  In1341    1.0  0.3947368419736842  0.2424242425  0.8103706999999999  1.0000
  In  In1342    1.0  0.40789473697368417  0.2348484847727273  0.1896293  1.0000
  Se  Se2011    1.0  0.3947368419736842  0.2424242425  0.32365471999999995  1.0000
  Se  Se2012    1.0  0.40789473697368417  0.2348484847727273  0.6763452799999999  1.0000
  Se  Se2013    1.0  0.39473684210526316  0.2272727272727273  0.0  1.0000
  In  In1343    1.0  0.3947368422368421  0.2575757575  0.1896293  1.0000
  Se  Se2014    1.0  0.3947368422368421  0.2575757575  0.6763452799999999  1.0000
  In  In1344    1.0  0.4078947367105263  0.2651515152272727  0.8103706999999999  1.0000
  Se  Se2015    1.0  0.4078947367105263  0.2651515152272727  0.32365471999999995  1.0000
  Se  Se2016    1.0  0.40789473684210525  0.25  0.0  1.0000
  In  In1345    1.0  0.3947368419736842  0.28787878795454547  0.8103706999999999  1.0000
  In  In1346    1.0  0.40789473697368417  0.28030303022727276  0.1896293  1.0000
  Se  Se2017    1.0  0.3947368419736842  0.28787878795454547  0.32365471999999995  1.0000
  Se  Se2018    1.0  0.40789473697368417  0.28030303022727276  0.6763452799999999  1.0000
  Se  Se2019    1.0  0.39473684210526316  0.27272727272727276  0.0  1.0000
  In  In1347    1.0  0.3947368422368421  0.3030303029545455  0.1896293  1.0000
  Se  Se2020    1.0  0.3947368422368421  0.3030303029545455  0.6763452799999999  1.0000
  In  In1348    1.0  0.4078947367105263  0.3106060606818183  0.8103706999999999  1.0000
  Se  Se2021    1.0  0.4078947367105263  0.3106060606818183  0.32365471999999995  1.0000
  Se  Se2022    1.0  0.40789473684210525  0.2954545454545455  0.0  1.0000
  In  In1349    1.0  0.3947368419736842  0.33333333340909094  0.8103706999999999  1.0000
  In  In1350    1.0  0.40789473697368417  0.32575757568181823  0.1896293  1.0000
  Se  Se2023    1.0  0.3947368419736842  0.33333333340909094  0.32365471999999995  1.0000
  Se  Se2024    1.0  0.40789473697368417  0.32575757568181823  0.6763452799999999  1.0000
  Se  Se2025    1.0  0.39473684210526316  0.31818181818181823  0.0  1.0000
  In  In1351    1.0  0.3947368422368421  0.34848484840909094  0.1896293  1.0000
  Se  Se2026    1.0  0.3947368422368421  0.34848484840909094  0.6763452799999999  1.0000
  In  In1352    1.0  0.4078947367105263  0.3560606061363637  0.8103706999999999  1.0000
  Se  Se2027    1.0  0.4078947367105263  0.3560606061363637  0.32365471999999995  1.0000
  Se  Se2028    1.0  0.40789473684210525  0.34090909090909094  0.0  1.0000
  In  In1353    1.0  0.3947368419736842  0.3787878788636364  0.8103706999999999  1.0000
  In  In1354    1.0  0.40789473697368417  0.3712121211363637  0.1896293  1.0000
  Se  Se2029    1.0  0.3947368419736842  0.3787878788636364  0.32365471999999995  1.0000
  Se  Se2030    1.0  0.40789473697368417  0.3712121211363637  0.6763452799999999  1.0000
  Se  Se2031    1.0  0.39473684210526316  0.36363636363636365  0.0  1.0000
  In  In1355    1.0  0.3947368422368421  0.3939393938636364  0.1896293  1.0000
  Se  Se2032    1.0  0.3947368422368421  0.3939393938636364  0.6763452799999999  1.0000
  In  In1356    1.0  0.4078947367105263  0.40151515159090917  0.8103706999999999  1.0000
  Se  Se2033    1.0  0.4078947367105263  0.40151515159090917  0.32365471999999995  1.0000
  Se  Se2034    1.0  0.40789473684210525  0.3863636363636364  0.0  1.0000
  In  In1357    1.0  0.3947368419736842  0.4242424243181818  0.8103706999999999  1.0000
  In  In1358    1.0  0.40789473697368417  0.4166666665909091  0.1896293  1.0000
  Se  Se2035    1.0  0.3947368419736842  0.4242424243181818  0.32365471999999995  1.0000
  Se  Se2036    1.0  0.40789473697368417  0.4166666665909091  0.6763452799999999  1.0000
  Se  Se2037    1.0  0.39473684210526316  0.4090909090909091  0.0  1.0000
  In  In1359    1.0  0.3947368422368421  0.4393939393181818  0.1896293  1.0000
  Se  Se2038    1.0  0.3947368422368421  0.4393939393181818  0.6763452799999999  1.0000
  In  In1360    1.0  0.4078947367105263  0.4469696970454546  0.8103706999999999  1.0000
  Se  Se2039    1.0  0.4078947367105263  0.4469696970454546  0.32365471999999995  1.0000
  Se  Se2040    1.0  0.40789473684210525  0.4318181818181819  0.0  1.0000
  In  In1361    1.0  0.3947368419736842  0.4696969697727273  0.8103706999999999  1.0000
  In  In1362    1.0  0.40789473697368417  0.46212121204545453  0.1896293  1.0000
  Se  Se2041    1.0  0.3947368419736842  0.4696969697727273  0.32365471999999995  1.0000
  Se  Se2042    1.0  0.40789473697368417  0.46212121204545453  0.6763452799999999  1.0000
  Se  Se2043    1.0  0.39473684210526316  0.4545454545454546  0.0  1.0000
  In  In1363    1.0  0.3947368422368421  0.4848484847727273  0.1896293  1.0000
  Se  Se2044    1.0  0.3947368422368421  0.4848484847727273  0.6763452799999999  1.0000
  In  In1364    1.0  0.4078947367105263  0.49242424250000005  0.8103706999999999  1.0000
  Se  Se2045    1.0  0.4078947367105263  0.49242424250000005  0.32365471999999995  1.0000
  Se  Se2046    1.0  0.40789473684210525  0.47727272727272735  0.0  1.0000
  In  In1365    1.0  0.3947368419736842  0.5151515152272728  0.8103706999999999  1.0000
  In  In1366    1.0  0.40789473697368417  0.5075757575  0.1896293  1.0000
  Se  Se2047    1.0  0.3947368419736842  0.5151515152272728  0.32365471999999995  1.0000
  Se  Se2048    1.0  0.40789473697368417  0.5075757575  0.6763452799999999  1.0000
  Se  Se2049    1.0  0.39473684210526316  0.5  0.0  1.0000
  In  In1367    1.0  0.3947368422368421  0.5303030302272728  0.1896293  1.0000
  Se  Se2050    1.0  0.3947368422368421  0.5303030302272728  0.6763452799999999  1.0000
  In  In1368    1.0  0.4078947367105263  0.5378787879545455  0.8103706999999999  1.0000
  Se  Se2051    1.0  0.4078947367105263  0.5378787879545455  0.32365471999999995  1.0000
  Se  Se2052    1.0  0.40789473684210525  0.5227272727272728  0.0  1.0000
  In  In1369    1.0  0.3947368419736842  0.5606060606818183  0.8103706999999999  1.0000
  In  In1370    1.0  0.40789473697368417  0.5530303029545455  0.1896293  1.0000
  Se  Se2053    1.0  0.3947368419736842  0.5606060606818183  0.32365471999999995  1.0000
  Se  Se2054    1.0  0.40789473697368417  0.5530303029545455  0.6763452799999999  1.0000
  Se  Se2055    1.0  0.39473684210526316  0.5454545454545455  0.0  1.0000
  In  In1371    1.0  0.3947368422368421  0.5757575756818183  0.1896293  1.0000
  Se  Se2056    1.0  0.3947368422368421  0.5757575756818183  0.6763452799999999  1.0000
  In  In1372    1.0  0.4078947367105263  0.583333333409091  0.8103706999999999  1.0000
  Se  Se2057    1.0  0.4078947367105263  0.583333333409091  0.32365471999999995  1.0000
  Se  Se2058    1.0  0.40789473684210525  0.5681818181818183  0.0  1.0000
  In  In1373    1.0  0.3947368419736842  0.6060606061363637  0.8103706999999999  1.0000
  In  In1374    1.0  0.40789473697368417  0.598484848409091  0.1896293  1.0000
  Se  Se2059    1.0  0.3947368419736842  0.6060606061363637  0.32365471999999995  1.0000
  Se  Se2060    1.0  0.40789473697368417  0.598484848409091  0.6763452799999999  1.0000
  Se  Se2061    1.0  0.39473684210526316  0.590909090909091  0.0  1.0000
  In  In1375    1.0  0.3947368422368421  0.6212121211363637  0.1896293  1.0000
  Se  Se2062    1.0  0.3947368422368421  0.6212121211363637  0.6763452799999999  1.0000
  In  In1376    1.0  0.4078947367105263  0.6287878788636365  0.8103706999999999  1.0000
  Se  Se2063    1.0  0.4078947367105263  0.6287878788636365  0.32365471999999995  1.0000
  Se  Se2064    1.0  0.40789473684210525  0.6136363636363638  0.0  1.0000
  In  In1377    1.0  0.3947368419736842  0.6515151515909091  0.8103706999999999  1.0000
  In  In1378    1.0  0.40789473697368417  0.6439393938636364  0.1896293  1.0000
  Se  Se2065    1.0  0.3947368419736842  0.6515151515909091  0.32365471999999995  1.0000
  Se  Se2066    1.0  0.40789473697368417  0.6439393938636364  0.6763452799999999  1.0000
  Se  Se2067    1.0  0.39473684210526316  0.6363636363636365  0.0  1.0000
  In  In1379    1.0  0.3947368422368421  0.6666666665909092  0.1896293  1.0000
  Se  Se2068    1.0  0.3947368422368421  0.6666666665909092  0.6763452799999999  1.0000
  In  In1380    1.0  0.4078947367105263  0.6742424243181819  0.8103706999999999  1.0000
  Se  Se2069    1.0  0.4078947367105263  0.6742424243181819  0.32365471999999995  1.0000
  Se  Se2070    1.0  0.40789473684210525  0.6590909090909092  0.0  1.0000
  In  In1381    1.0  0.3947368419736842  0.6969696970454546  0.8103706999999999  1.0000
  In  In1382    1.0  0.40789473697368417  0.6893939393181818  0.1896293  1.0000
  Se  Se2071    1.0  0.3947368419736842  0.6969696970454546  0.32365471999999995  1.0000
  Se  Se2072    1.0  0.40789473697368417  0.6893939393181818  0.6763452799999999  1.0000
  Se  Se2073    1.0  0.39473684210526316  0.6818181818181819  0.0  1.0000
  In  In1383    1.0  0.3947368422368421  0.7121212120454546  0.1896293  1.0000
  Se  Se2074    1.0  0.3947368422368421  0.7121212120454546  0.6763452799999999  1.0000
  In  In1384    1.0  0.4078947367105263  0.7196969697727273  0.8103706999999999  1.0000
  Se  Se2075    1.0  0.4078947367105263  0.7196969697727273  0.32365471999999995  1.0000
  Se  Se2076    1.0  0.40789473684210525  0.7045454545454547  0.0  1.0000
  In  In1385    1.0  0.3947368419736842  0.7424242425  0.8103706999999999  1.0000
  In  In1386    1.0  0.40789473697368417  0.7348484847727274  0.1896293  1.0000
  Se  Se2077    1.0  0.3947368419736842  0.7424242425  0.32365471999999995  1.0000
  Se  Se2078    1.0  0.40789473697368417  0.7348484847727274  0.6763452799999999  1.0000
  Se  Se2079    1.0  0.39473684210526316  0.7272727272727273  0.0  1.0000
  In  In1387    1.0  0.3947368422368421  0.7575757575000001  0.1896293  1.0000
  Se  Se2080    1.0  0.3947368422368421  0.7575757575000001  0.6763452799999999  1.0000
  In  In1388    1.0  0.4078947367105263  0.7651515152272729  0.8103706999999999  1.0000
  Se  Se2081    1.0  0.4078947367105263  0.7651515152272729  0.32365471999999995  1.0000
  Se  Se2082    1.0  0.40789473684210525  0.7500000000000001  0.0  1.0000
  In  In1389    1.0  0.3947368419736842  0.7878787879545455  0.8103706999999999  1.0000
  In  In1390    1.0  0.40789473697368417  0.7803030302272728  0.1896293  1.0000
  Se  Se2083    1.0  0.3947368419736842  0.7878787879545455  0.32365471999999995  1.0000
  Se  Se2084    1.0  0.40789473697368417  0.7803030302272728  0.6763452799999999  1.0000
  Se  Se2085    1.0  0.39473684210526316  0.7727272727272728  0.0  1.0000
  In  In1391    1.0  0.3947368422368421  0.8030303029545455  0.1896293  1.0000
  Se  Se2086    1.0  0.3947368422368421  0.8030303029545455  0.6763452799999999  1.0000
  In  In1392    1.0  0.4078947367105263  0.8106060606818183  0.8103706999999999  1.0000
  Se  Se2087    1.0  0.4078947367105263  0.8106060606818183  0.32365471999999995  1.0000
  Se  Se2088    1.0  0.40789473684210525  0.7954545454545455  0.0  1.0000
  In  In1393    1.0  0.3947368419736842  0.833333333409091  0.8103706999999999  1.0000
  In  In1394    1.0  0.40789473697368417  0.8257575756818182  0.1896293  1.0000
  Se  Se2089    1.0  0.3947368419736842  0.833333333409091  0.32365471999999995  1.0000
  Se  Se2090    1.0  0.40789473697368417  0.8257575756818182  0.6763452799999999  1.0000
  Se  Se2091    1.0  0.39473684210526316  0.8181818181818182  0.0  1.0000
  In  In1395    1.0  0.3947368422368421  0.848484848409091  0.1896293  1.0000
  Se  Se2092    1.0  0.3947368422368421  0.848484848409091  0.6763452799999999  1.0000
  In  In1396    1.0  0.4078947367105263  0.8560606061363636  0.8103706999999999  1.0000
  Se  Se2093    1.0  0.4078947367105263  0.8560606061363636  0.32365471999999995  1.0000
  Se  Se2094    1.0  0.40789473684210525  0.840909090909091  0.0  1.0000
  In  In1397    1.0  0.3947368419736842  0.8787878788636366  0.8103706999999999  1.0000
  In  In1398    1.0  0.40789473697368417  0.8712121211363637  0.1896293  1.0000
  Se  Se2095    1.0  0.3947368419736842  0.8787878788636366  0.32365471999999995  1.0000
  Se  Se2096    1.0  0.40789473697368417  0.8712121211363637  0.6763452799999999  1.0000
  Se  Se2097    1.0  0.39473684210526316  0.8636363636363638  0.0  1.0000
  In  In1399    1.0  0.3947368422368421  0.8939393938636365  0.1896293  1.0000
  Se  Se2098    1.0  0.3947368422368421  0.8939393938636365  0.6763452799999999  1.0000
  In  In1400    1.0  0.4078947367105263  0.9015151515909092  0.8103706999999999  1.0000
  Se  Se2099    1.0  0.4078947367105263  0.9015151515909092  0.32365471999999995  1.0000
  Se  Se2100    1.0  0.40789473684210525  0.8863636363636366  0.0  1.0000
  In  In1401    1.0  0.3947368419736842  0.9242424243181819  0.8103706999999999  1.0000
  In  In1402    1.0  0.40789473697368417  0.9166666665909091  0.1896293  1.0000
  Se  Se2101    1.0  0.3947368419736842  0.9242424243181819  0.32365471999999995  1.0000
  Se  Se2102    1.0  0.40789473697368417  0.9166666665909091  0.6763452799999999  1.0000
  Se  Se2103    1.0  0.39473684210526316  0.9090909090909092  0.0  1.0000
  In  In1403    1.0  0.3947368422368421  0.9393939393181818  0.1896293  1.0000
  Se  Se2104    1.0  0.3947368422368421  0.9393939393181818  0.6763452799999999  1.0000
  In  In1404    1.0  0.4078947367105263  0.9469696970454545  0.8103706999999999  1.0000
  Se  Se2105    1.0  0.4078947367105263  0.9469696970454545  0.32365471999999995  1.0000
  Se  Se2106    1.0  0.40789473684210525  0.9318181818181819  0.0  1.0000
  In  In1405    1.0  0.3947368419736842  0.9696969697727275  0.8103706999999999  1.0000
  In  In1406    1.0  0.40789473697368417  0.9621212120454546  0.1896293  1.0000
  Se  Se2107    1.0  0.3947368419736842  0.9696969697727275  0.32365471999999995  1.0000
  Se  Se2108    1.0  0.40789473697368417  0.9621212120454546  0.6763452799999999  1.0000
  Se  Se2109    1.0  0.39473684210526316  0.9545454545454547  0.0  1.0000
  In  In1407    1.0  0.3947368422368421  0.9848484847727275  0.1896293  1.0000
  Se  Se2110    1.0  0.3947368422368421  0.9848484847727275  0.6763452799999999  1.0000
  In  In1408    1.0  0.4078947367105263  0.9924242425  0.8103706999999999  1.0000
  Se  Se2111    1.0  0.4078947367105263  0.9924242425  0.32365471999999995  1.0000
  Se  Se2112    1.0  0.40789473684210525  0.9772727272727274  0.0  1.0000
  In  In1409    1.0  0.4210526314473684  0.01515151522727273  0.8103706999999999  1.0000
  In  In1410    1.0  0.4342105264473684  0.0075757575  0.1896293  1.0000
  Se  Se2113    1.0  0.4210526314473684  0.01515151522727273  0.32365471999999995  1.0000
  Se  Se2114    1.0  0.4342105264473684  0.0075757575  0.6763452799999999  1.0000
  Se  Se2115    1.0  0.42105263157894735  0.0  0.0  1.0000
  In  In1411    1.0  0.42105263171052626  0.030303030227272734  0.1896293  1.0000
  Se  Se2116    1.0  0.42105263171052626  0.030303030227272734  0.6763452799999999  1.0000
  In  In1412    1.0  0.4342105261842105  0.03787878795454546  0.8103706999999999  1.0000
  Se  Se2117    1.0  0.4342105261842105  0.03787878795454546  0.32365471999999995  1.0000
  Se  Se2118    1.0  0.43421052631578944  0.022727272727272728  0.0  1.0000
  In  In1413    1.0  0.4210526314473684  0.06060606068181818  0.8103706999999999  1.0000
  In  In1414    1.0  0.4342105264473684  0.05303030295454546  0.1896293  1.0000
  Se  Se2119    1.0  0.4210526314473684  0.06060606068181818  0.32365471999999995  1.0000
  Se  Se2120    1.0  0.4342105264473684  0.05303030295454546  0.6763452799999999  1.0000
  Se  Se2121    1.0  0.42105263157894735  0.045454545454545456  0.0  1.0000
  In  In1415    1.0  0.42105263171052626  0.07575757568181819  0.1896293  1.0000
  Se  Se2122    1.0  0.42105263171052626  0.07575757568181819  0.6763452799999999  1.0000
  In  In1416    1.0  0.4342105261842105  0.08333333340909092  0.8103706999999999  1.0000
  Se  Se2123    1.0  0.4342105261842105  0.08333333340909092  0.32365471999999995  1.0000
  Se  Se2124    1.0  0.43421052631578944  0.06818181818181819  0.0  1.0000
  In  In1417    1.0  0.4210526314473684  0.10606060613636366  0.8103706999999999  1.0000
  In  In1418    1.0  0.4342105264473684  0.09848484840909091  0.1896293  1.0000
  Se  Se2125    1.0  0.4210526314473684  0.10606060613636366  0.32365471999999995  1.0000
  Se  Se2126    1.0  0.4342105264473684  0.09848484840909091  0.6763452799999999  1.0000
  Se  Se2127    1.0  0.42105263157894735  0.09090909090909091  0.0  1.0000
  In  In1419    1.0  0.42105263171052626  0.12121212113636365  0.1896293  1.0000
  Se  Se2128    1.0  0.42105263171052626  0.12121212113636365  0.6763452799999999  1.0000
  In  In1420    1.0  0.4342105261842105  0.12878787886363638  0.8103706999999999  1.0000
  Se  Se2129    1.0  0.4342105261842105  0.12878787886363638  0.32365471999999995  1.0000
  Se  Se2130    1.0  0.43421052631578944  0.11363636363636365  0.0  1.0000
  In  In1421    1.0  0.4210526314473684  0.15151515159090911  0.8103706999999999  1.0000
  In  In1422    1.0  0.4342105264473684  0.1439393938636364  0.1896293  1.0000
  Se  Se2131    1.0  0.4210526314473684  0.15151515159090911  0.32365471999999995  1.0000
  Se  Se2132    1.0  0.4342105264473684  0.1439393938636364  0.6763452799999999  1.0000
  Se  Se2133    1.0  0.42105263157894735  0.13636363636363638  0.0  1.0000
  In  In1423    1.0  0.42105263171052626  0.16666666659090912  0.1896293  1.0000
  Se  Se2134    1.0  0.42105263171052626  0.16666666659090912  0.6763452799999999  1.0000
  In  In1424    1.0  0.4342105261842105  0.17424242431818185  0.8103706999999999  1.0000
  Se  Se2135    1.0  0.4342105261842105  0.17424242431818185  0.32365471999999995  1.0000
  Se  Se2136    1.0  0.43421052631578944  0.15909090909090912  0.0  1.0000
  In  In1425    1.0  0.4210526314473684  0.19696969704545458  0.8103706999999999  1.0000
  In  In1426    1.0  0.4342105264473684  0.18939393931818185  0.1896293  1.0000
  Se  Se2137    1.0  0.4210526314473684  0.19696969704545458  0.32365471999999995  1.0000
  Se  Se2138    1.0  0.4342105264473684  0.18939393931818185  0.6763452799999999  1.0000
  Se  Se2139    1.0  0.42105263157894735  0.18181818181818182  0.0  1.0000
  In  In1427    1.0  0.42105263171052626  0.21212121204545456  0.1896293  1.0000
  Se  Se2140    1.0  0.42105263171052626  0.21212121204545456  0.6763452799999999  1.0000
  In  In1428    1.0  0.4342105261842105  0.21969696977272726  0.8103706999999999  1.0000
  Se  Se2141    1.0  0.4342105261842105  0.21969696977272726  0.32365471999999995  1.0000
  Se  Se2142    1.0  0.43421052631578944  0.20454545454545456  0.0  1.0000
  In  In1429    1.0  0.4210526314473684  0.2424242425  0.8103706999999999  1.0000
  In  In1430    1.0  0.4342105264473684  0.2348484847727273  0.1896293  1.0000
  Se  Se2143    1.0  0.4210526314473684  0.2424242425  0.32365471999999995  1.0000
  Se  Se2144    1.0  0.4342105264473684  0.2348484847727273  0.6763452799999999  1.0000
  Se  Se2145    1.0  0.42105263157894735  0.2272727272727273  0.0  1.0000
  In  In1431    1.0  0.42105263171052626  0.2575757575  0.1896293  1.0000
  Se  Se2146    1.0  0.42105263171052626  0.2575757575  0.6763452799999999  1.0000
  In  In1432    1.0  0.4342105261842105  0.2651515152272727  0.8103706999999999  1.0000
  Se  Se2147    1.0  0.4342105261842105  0.2651515152272727  0.32365471999999995  1.0000
  Se  Se2148    1.0  0.43421052631578944  0.25  0.0  1.0000
  In  In1433    1.0  0.4210526314473684  0.28787878795454547  0.8103706999999999  1.0000
  In  In1434    1.0  0.4342105264473684  0.28030303022727276  0.1896293  1.0000
  Se  Se2149    1.0  0.4210526314473684  0.28787878795454547  0.32365471999999995  1.0000
  Se  Se2150    1.0  0.4342105264473684  0.28030303022727276  0.6763452799999999  1.0000
  Se  Se2151    1.0  0.42105263157894735  0.27272727272727276  0.0  1.0000
  In  In1435    1.0  0.42105263171052626  0.3030303029545455  0.1896293  1.0000
  Se  Se2152    1.0  0.42105263171052626  0.3030303029545455  0.6763452799999999  1.0000
  In  In1436    1.0  0.4342105261842105  0.3106060606818183  0.8103706999999999  1.0000
  Se  Se2153    1.0  0.4342105261842105  0.3106060606818183  0.32365471999999995  1.0000
  Se  Se2154    1.0  0.43421052631578944  0.2954545454545455  0.0  1.0000
  In  In1437    1.0  0.4210526314473684  0.33333333340909094  0.8103706999999999  1.0000
  In  In1438    1.0  0.4342105264473684  0.32575757568181823  0.1896293  1.0000
  Se  Se2155    1.0  0.4210526314473684  0.33333333340909094  0.32365471999999995  1.0000
  Se  Se2156    1.0  0.4342105264473684  0.32575757568181823  0.6763452799999999  1.0000
  Se  Se2157    1.0  0.42105263157894735  0.31818181818181823  0.0  1.0000
  In  In1439    1.0  0.42105263171052626  0.34848484840909094  0.1896293  1.0000
  Se  Se2158    1.0  0.42105263171052626  0.34848484840909094  0.6763452799999999  1.0000
  In  In1440    1.0  0.4342105261842105  0.3560606061363637  0.8103706999999999  1.0000
  Se  Se2159    1.0  0.4342105261842105  0.3560606061363637  0.32365471999999995  1.0000
  Se  Se2160    1.0  0.43421052631578944  0.34090909090909094  0.0  1.0000
  In  In1441    1.0  0.4210526314473684  0.3787878788636364  0.8103706999999999  1.0000
  In  In1442    1.0  0.4342105264473684  0.3712121211363637  0.1896293  1.0000
  Se  Se2161    1.0  0.4210526314473684  0.3787878788636364  0.32365471999999995  1.0000
  Se  Se2162    1.0  0.4342105264473684  0.3712121211363637  0.6763452799999999  1.0000
  Se  Se2163    1.0  0.42105263157894735  0.36363636363636365  0.0  1.0000
  In  In1443    1.0  0.42105263171052626  0.3939393938636364  0.1896293  1.0000
  Se  Se2164    1.0  0.42105263171052626  0.3939393938636364  0.6763452799999999  1.0000
  In  In1444    1.0  0.4342105261842105  0.40151515159090917  0.8103706999999999  1.0000
  Se  Se2165    1.0  0.4342105261842105  0.40151515159090917  0.32365471999999995  1.0000
  Se  Se2166    1.0  0.43421052631578944  0.3863636363636364  0.0  1.0000
  In  In1445    1.0  0.4210526314473684  0.4242424243181818  0.8103706999999999  1.0000
  In  In1446    1.0  0.4342105264473684  0.4166666665909091  0.1896293  1.0000
  Se  Se2167    1.0  0.4210526314473684  0.4242424243181818  0.32365471999999995  1.0000
  Se  Se2168    1.0  0.4342105264473684  0.4166666665909091  0.6763452799999999  1.0000
  Se  Se2169    1.0  0.42105263157894735  0.4090909090909091  0.0  1.0000
  In  In1447    1.0  0.42105263171052626  0.4393939393181818  0.1896293  1.0000
  Se  Se2170    1.0  0.42105263171052626  0.4393939393181818  0.6763452799999999  1.0000
  In  In1448    1.0  0.4342105261842105  0.4469696970454546  0.8103706999999999  1.0000
  Se  Se2171    1.0  0.4342105261842105  0.4469696970454546  0.32365471999999995  1.0000
  Se  Se2172    1.0  0.43421052631578944  0.4318181818181819  0.0  1.0000
  In  In1449    1.0  0.4210526314473684  0.4696969697727273  0.8103706999999999  1.0000
  In  In1450    1.0  0.4342105264473684  0.46212121204545453  0.1896293  1.0000
  Se  Se2173    1.0  0.4210526314473684  0.4696969697727273  0.32365471999999995  1.0000
  Se  Se2174    1.0  0.4342105264473684  0.46212121204545453  0.6763452799999999  1.0000
  Se  Se2175    1.0  0.42105263157894735  0.4545454545454546  0.0  1.0000
  In  In1451    1.0  0.42105263171052626  0.4848484847727273  0.1896293  1.0000
  Se  Se2176    1.0  0.42105263171052626  0.4848484847727273  0.6763452799999999  1.0000
  In  In1452    1.0  0.4342105261842105  0.49242424250000005  0.8103706999999999  1.0000
  Se  Se2177    1.0  0.4342105261842105  0.49242424250000005  0.32365471999999995  1.0000
  Se  Se2178    1.0  0.43421052631578944  0.47727272727272735  0.0  1.0000
  In  In1453    1.0  0.4210526314473684  0.5151515152272728  0.8103706999999999  1.0000
  In  In1454    1.0  0.4342105264473684  0.5075757575  0.1896293  1.0000
  Se  Se2179    1.0  0.4210526314473684  0.5151515152272728  0.32365471999999995  1.0000
  Se  Se2180    1.0  0.4342105264473684  0.5075757575  0.6763452799999999  1.0000
  Se  Se2181    1.0  0.42105263157894735  0.5  0.0  1.0000
  In  In1455    1.0  0.42105263171052626  0.5303030302272728  0.1896293  1.0000
  Se  Se2182    1.0  0.42105263171052626  0.5303030302272728  0.6763452799999999  1.0000
  In  In1456    1.0  0.4342105261842105  0.5378787879545455  0.8103706999999999  1.0000
  Se  Se2183    1.0  0.4342105261842105  0.5378787879545455  0.32365471999999995  1.0000
  Se  Se2184    1.0  0.43421052631578944  0.5227272727272728  0.0  1.0000
  In  In1457    1.0  0.4210526314473684  0.5606060606818183  0.8103706999999999  1.0000
  In  In1458    1.0  0.4342105264473684  0.5530303029545455  0.1896293  1.0000
  Se  Se2185    1.0  0.4210526314473684  0.5606060606818183  0.32365471999999995  1.0000
  Se  Se2186    1.0  0.4342105264473684  0.5530303029545455  0.6763452799999999  1.0000
  Se  Se2187    1.0  0.42105263157894735  0.5454545454545455  0.0  1.0000
  In  In1459    1.0  0.42105263171052626  0.5757575756818183  0.1896293  1.0000
  Se  Se2188    1.0  0.42105263171052626  0.5757575756818183  0.6763452799999999  1.0000
  In  In1460    1.0  0.4342105261842105  0.583333333409091  0.8103706999999999  1.0000
  Se  Se2189    1.0  0.4342105261842105  0.583333333409091  0.32365471999999995  1.0000
  Se  Se2190    1.0  0.43421052631578944  0.5681818181818183  0.0  1.0000
  In  In1461    1.0  0.4210526314473684  0.6060606061363637  0.8103706999999999  1.0000
  In  In1462    1.0  0.4342105264473684  0.598484848409091  0.1896293  1.0000
  Se  Se2191    1.0  0.4210526314473684  0.6060606061363637  0.32365471999999995  1.0000
  Se  Se2192    1.0  0.4342105264473684  0.598484848409091  0.6763452799999999  1.0000
  Se  Se2193    1.0  0.42105263157894735  0.590909090909091  0.0  1.0000
  In  In1463    1.0  0.42105263171052626  0.6212121211363637  0.1896293  1.0000
  Se  Se2194    1.0  0.42105263171052626  0.6212121211363637  0.6763452799999999  1.0000
  In  In1464    1.0  0.4342105261842105  0.6287878788636365  0.8103706999999999  1.0000
  Se  Se2195    1.0  0.4342105261842105  0.6287878788636365  0.32365471999999995  1.0000
  Se  Se2196    1.0  0.43421052631578944  0.6136363636363638  0.0  1.0000
  In  In1465    1.0  0.4210526314473684  0.6515151515909091  0.8103706999999999  1.0000
  In  In1466    1.0  0.4342105264473684  0.6439393938636364  0.1896293  1.0000
  Se  Se2197    1.0  0.4210526314473684  0.6515151515909091  0.32365471999999995  1.0000
  Se  Se2198    1.0  0.4342105264473684  0.6439393938636364  0.6763452799999999  1.0000
  Se  Se2199    1.0  0.42105263157894735  0.6363636363636365  0.0  1.0000
  In  In1467    1.0  0.42105263171052626  0.6666666665909092  0.1896293  1.0000
  Se  Se2200    1.0  0.42105263171052626  0.6666666665909092  0.6763452799999999  1.0000
  In  In1468    1.0  0.4342105261842105  0.6742424243181819  0.8103706999999999  1.0000
  Se  Se2201    1.0  0.4342105261842105  0.6742424243181819  0.32365471999999995  1.0000
  Se  Se2202    1.0  0.43421052631578944  0.6590909090909092  0.0  1.0000
  In  In1469    1.0  0.4210526314473684  0.6969696970454546  0.8103706999999999  1.0000
  In  In1470    1.0  0.4342105264473684  0.6893939393181818  0.1896293  1.0000
  Se  Se2203    1.0  0.4210526314473684  0.6969696970454546  0.32365471999999995  1.0000
  Se  Se2204    1.0  0.4342105264473684  0.6893939393181818  0.6763452799999999  1.0000
  Se  Se2205    1.0  0.42105263157894735  0.6818181818181819  0.0  1.0000
  In  In1471    1.0  0.42105263171052626  0.7121212120454546  0.1896293  1.0000
  Se  Se2206    1.0  0.42105263171052626  0.7121212120454546  0.6763452799999999  1.0000
  In  In1472    1.0  0.4342105261842105  0.7196969697727273  0.8103706999999999  1.0000
  Se  Se2207    1.0  0.4342105261842105  0.7196969697727273  0.32365471999999995  1.0000
  Se  Se2208    1.0  0.43421052631578944  0.7045454545454547  0.0  1.0000
  In  In1473    1.0  0.4210526314473684  0.7424242425  0.8103706999999999  1.0000
  In  In1474    1.0  0.4342105264473684  0.7348484847727274  0.1896293  1.0000
  Se  Se2209    1.0  0.4210526314473684  0.7424242425  0.32365471999999995  1.0000
  Se  Se2210    1.0  0.4342105264473684  0.7348484847727274  0.6763452799999999  1.0000
  Se  Se2211    1.0  0.42105263157894735  0.7272727272727273  0.0  1.0000
  In  In1475    1.0  0.42105263171052626  0.7575757575000001  0.1896293  1.0000
  Se  Se2212    1.0  0.42105263171052626  0.7575757575000001  0.6763452799999999  1.0000
  In  In1476    1.0  0.4342105261842105  0.7651515152272729  0.8103706999999999  1.0000
  Se  Se2213    1.0  0.4342105261842105  0.7651515152272729  0.32365471999999995  1.0000
  Se  Se2214    1.0  0.43421052631578944  0.7500000000000001  0.0  1.0000
  In  In1477    1.0  0.4210526314473684  0.7878787879545455  0.8103706999999999  1.0000
  In  In1478    1.0  0.4342105264473684  0.7803030302272728  0.1896293  1.0000
  Se  Se2215    1.0  0.4210526314473684  0.7878787879545455  0.32365471999999995  1.0000
  Se  Se2216    1.0  0.4342105264473684  0.7803030302272728  0.6763452799999999  1.0000
  Se  Se2217    1.0  0.42105263157894735  0.7727272727272728  0.0  1.0000
  In  In1479    1.0  0.42105263171052626  0.8030303029545455  0.1896293  1.0000
  Se  Se2218    1.0  0.42105263171052626  0.8030303029545455  0.6763452799999999  1.0000
  In  In1480    1.0  0.4342105261842105  0.8106060606818183  0.8103706999999999  1.0000
  Se  Se2219    1.0  0.4342105261842105  0.8106060606818183  0.32365471999999995  1.0000
  Se  Se2220    1.0  0.43421052631578944  0.7954545454545455  0.0  1.0000
  In  In1481    1.0  0.4210526314473684  0.833333333409091  0.8103706999999999  1.0000
  In  In1482    1.0  0.4342105264473684  0.8257575756818182  0.1896293  1.0000
  Se  Se2221    1.0  0.4210526314473684  0.833333333409091  0.32365471999999995  1.0000
  Se  Se2222    1.0  0.4342105264473684  0.8257575756818182  0.6763452799999999  1.0000
  Se  Se2223    1.0  0.42105263157894735  0.8181818181818182  0.0  1.0000
  In  In1483    1.0  0.42105263171052626  0.848484848409091  0.1896293  1.0000
  Se  Se2224    1.0  0.42105263171052626  0.848484848409091  0.6763452799999999  1.0000
  In  In1484    1.0  0.4342105261842105  0.8560606061363636  0.8103706999999999  1.0000
  Se  Se2225    1.0  0.4342105261842105  0.8560606061363636  0.32365471999999995  1.0000
  Se  Se2226    1.0  0.43421052631578944  0.840909090909091  0.0  1.0000
  In  In1485    1.0  0.4210526314473684  0.8787878788636366  0.8103706999999999  1.0000
  In  In1486    1.0  0.4342105264473684  0.8712121211363637  0.1896293  1.0000
  Se  Se2227    1.0  0.4210526314473684  0.8787878788636366  0.32365471999999995  1.0000
  Se  Se2228    1.0  0.4342105264473684  0.8712121211363637  0.6763452799999999  1.0000
  Se  Se2229    1.0  0.42105263157894735  0.8636363636363638  0.0  1.0000
  In  In1487    1.0  0.42105263171052626  0.8939393938636365  0.1896293  1.0000
  Se  Se2230    1.0  0.42105263171052626  0.8939393938636365  0.6763452799999999  1.0000
  In  In1488    1.0  0.4342105261842105  0.9015151515909092  0.8103706999999999  1.0000
  Se  Se2231    1.0  0.4342105261842105  0.9015151515909092  0.32365471999999995  1.0000
  Se  Se2232    1.0  0.43421052631578944  0.8863636363636366  0.0  1.0000
  In  In1489    1.0  0.4210526314473684  0.9242424243181819  0.8103706999999999  1.0000
  In  In1490    1.0  0.4342105264473684  0.9166666665909091  0.1896293  1.0000
  Se  Se2233    1.0  0.4210526314473684  0.9242424243181819  0.32365471999999995  1.0000
  Se  Se2234    1.0  0.4342105264473684  0.9166666665909091  0.6763452799999999  1.0000
  Se  Se2235    1.0  0.42105263157894735  0.9090909090909092  0.0  1.0000
  In  In1491    1.0  0.42105263171052626  0.9393939393181818  0.1896293  1.0000
  Se  Se2236    1.0  0.42105263171052626  0.9393939393181818  0.6763452799999999  1.0000
  In  In1492    1.0  0.4342105261842105  0.9469696970454545  0.8103706999999999  1.0000
  Se  Se2237    1.0  0.4342105261842105  0.9469696970454545  0.32365471999999995  1.0000
  Se  Se2238    1.0  0.43421052631578944  0.9318181818181819  0.0  1.0000
  In  In1493    1.0  0.4210526314473684  0.9696969697727275  0.8103706999999999  1.0000
  In  In1494    1.0  0.4342105264473684  0.9621212120454546  0.1896293  1.0000
  Se  Se2239    1.0  0.4210526314473684  0.9696969697727275  0.32365471999999995  1.0000
  Se  Se2240    1.0  0.4342105264473684  0.9621212120454546  0.6763452799999999  1.0000
  Se  Se2241    1.0  0.42105263157894735  0.9545454545454547  0.0  1.0000
  In  In1495    1.0  0.42105263171052626  0.9848484847727275  0.1896293  1.0000
  Se  Se2242    1.0  0.42105263171052626  0.9848484847727275  0.6763452799999999  1.0000
  In  In1496    1.0  0.4342105261842105  0.9924242425  0.8103706999999999  1.0000
  Se  Se2243    1.0  0.4342105261842105  0.9924242425  0.32365471999999995  1.0000
  Se  Se2244    1.0  0.43421052631578944  0.9772727272727274  0.0  1.0000
  In  In1497    1.0  0.44736842092105256  0.01515151522727273  0.8103706999999999  1.0000
  In  In1498    1.0  0.46052631592105264  0.0075757575  0.1896293  1.0000
  Se  Se2245    1.0  0.44736842092105256  0.01515151522727273  0.32365471999999995  1.0000
  Se  Se2246    1.0  0.46052631592105264  0.0075757575  0.6763452799999999  1.0000
  Se  Se2247    1.0  0.4473684210526315  0.0  0.0  1.0000
  In  In1499    1.0  0.4473684211842105  0.030303030227272734  0.1896293  1.0000
  Se  Se2248    1.0  0.4473684211842105  0.030303030227272734  0.6763452799999999  1.0000
  In  In1500    1.0  0.4605263156578947  0.03787878795454546  0.8103706999999999  1.0000
  Se  Se2249    1.0  0.4605263156578947  0.03787878795454546  0.32365471999999995  1.0000
  Se  Se2250    1.0  0.4605263157894736  0.022727272727272728  0.0  1.0000
  In  In1501    1.0  0.44736842092105256  0.06060606068181818  0.8103706999999999  1.0000
  In  In1502    1.0  0.46052631592105264  0.05303030295454546  0.1896293  1.0000
  Se  Se2251    1.0  0.44736842092105256  0.06060606068181818  0.32365471999999995  1.0000
  Se  Se2252    1.0  0.46052631592105264  0.05303030295454546  0.6763452799999999  1.0000
  Se  Se2253    1.0  0.4473684210526315  0.045454545454545456  0.0  1.0000
  In  In1503    1.0  0.4473684211842105  0.07575757568181819  0.1896293  1.0000
  Se  Se2254    1.0  0.4473684211842105  0.07575757568181819  0.6763452799999999  1.0000
  In  In1504    1.0  0.4605263156578947  0.08333333340909092  0.8103706999999999  1.0000
  Se  Se2255    1.0  0.4605263156578947  0.08333333340909092  0.32365471999999995  1.0000
  Se  Se2256    1.0  0.4605263157894736  0.06818181818181819  0.0  1.0000
  In  In1505    1.0  0.44736842092105256  0.10606060613636366  0.8103706999999999  1.0000
  In  In1506    1.0  0.46052631592105264  0.09848484840909091  0.1896293  1.0000
  Se  Se2257    1.0  0.44736842092105256  0.10606060613636366  0.32365471999999995  1.0000
  Se  Se2258    1.0  0.46052631592105264  0.09848484840909091  0.6763452799999999  1.0000
  Se  Se2259    1.0  0.4473684210526315  0.09090909090909091  0.0  1.0000
  In  In1507    1.0  0.4473684211842105  0.12121212113636365  0.1896293  1.0000
  Se  Se2260    1.0  0.4473684211842105  0.12121212113636365  0.6763452799999999  1.0000
  In  In1508    1.0  0.4605263156578947  0.12878787886363638  0.8103706999999999  1.0000
  Se  Se2261    1.0  0.4605263156578947  0.12878787886363638  0.32365471999999995  1.0000
  Se  Se2262    1.0  0.4605263157894736  0.11363636363636365  0.0  1.0000
  In  In1509    1.0  0.44736842092105256  0.15151515159090911  0.8103706999999999  1.0000
  In  In1510    1.0  0.46052631592105264  0.1439393938636364  0.1896293  1.0000
  Se  Se2263    1.0  0.44736842092105256  0.15151515159090911  0.32365471999999995  1.0000
  Se  Se2264    1.0  0.46052631592105264  0.1439393938636364  0.6763452799999999  1.0000
  Se  Se2265    1.0  0.4473684210526315  0.13636363636363638  0.0  1.0000
  In  In1511    1.0  0.4473684211842105  0.16666666659090912  0.1896293  1.0000
  Se  Se2266    1.0  0.4473684211842105  0.16666666659090912  0.6763452799999999  1.0000
  In  In1512    1.0  0.4605263156578947  0.17424242431818185  0.8103706999999999  1.0000
  Se  Se2267    1.0  0.4605263156578947  0.17424242431818185  0.32365471999999995  1.0000
  Se  Se2268    1.0  0.4605263157894736  0.15909090909090912  0.0  1.0000
  In  In1513    1.0  0.44736842092105256  0.19696969704545458  0.8103706999999999  1.0000
  In  In1514    1.0  0.46052631592105264  0.18939393931818185  0.1896293  1.0000
  Se  Se2269    1.0  0.44736842092105256  0.19696969704545458  0.32365471999999995  1.0000
  Se  Se2270    1.0  0.46052631592105264  0.18939393931818185  0.6763452799999999  1.0000
  Se  Se2271    1.0  0.4473684210526315  0.18181818181818182  0.0  1.0000
  In  In1515    1.0  0.4473684211842105  0.21212121204545456  0.1896293  1.0000
  Se  Se2272    1.0  0.4473684211842105  0.21212121204545456  0.6763452799999999  1.0000
  In  In1516    1.0  0.4605263156578947  0.21969696977272726  0.8103706999999999  1.0000
  Se  Se2273    1.0  0.4605263156578947  0.21969696977272726  0.32365471999999995  1.0000
  Se  Se2274    1.0  0.4605263157894736  0.20454545454545456  0.0  1.0000
  In  In1517    1.0  0.44736842092105256  0.2424242425  0.8103706999999999  1.0000
  In  In1518    1.0  0.46052631592105264  0.2348484847727273  0.1896293  1.0000
  Se  Se2275    1.0  0.44736842092105256  0.2424242425  0.32365471999999995  1.0000
  Se  Se2276    1.0  0.46052631592105264  0.2348484847727273  0.6763452799999999  1.0000
  Se  Se2277    1.0  0.4473684210526315  0.2272727272727273  0.0  1.0000
  In  In1519    1.0  0.4473684211842105  0.2575757575  0.1896293  1.0000
  Se  Se2278    1.0  0.4473684211842105  0.2575757575  0.6763452799999999  1.0000
  In  In1520    1.0  0.4605263156578947  0.2651515152272727  0.8103706999999999  1.0000
  Se  Se2279    1.0  0.4605263156578947  0.2651515152272727  0.32365471999999995  1.0000
  Se  Se2280    1.0  0.4605263157894736  0.25  0.0  1.0000
  In  In1521    1.0  0.44736842092105256  0.28787878795454547  0.8103706999999999  1.0000
  In  In1522    1.0  0.46052631592105264  0.28030303022727276  0.1896293  1.0000
  Se  Se2281    1.0  0.44736842092105256  0.28787878795454547  0.32365471999999995  1.0000
  Se  Se2282    1.0  0.46052631592105264  0.28030303022727276  0.6763452799999999  1.0000
  Se  Se2283    1.0  0.4473684210526315  0.27272727272727276  0.0  1.0000
  In  In1523    1.0  0.4473684211842105  0.3030303029545455  0.1896293  1.0000
  Se  Se2284    1.0  0.4473684211842105  0.3030303029545455  0.6763452799999999  1.0000
  In  In1524    1.0  0.4605263156578947  0.3106060606818183  0.8103706999999999  1.0000
  Se  Se2285    1.0  0.4605263156578947  0.3106060606818183  0.32365471999999995  1.0000
  Se  Se2286    1.0  0.4605263157894736  0.2954545454545455  0.0  1.0000
  In  In1525    1.0  0.44736842092105256  0.33333333340909094  0.8103706999999999  1.0000
  In  In1526    1.0  0.46052631592105264  0.32575757568181823  0.1896293  1.0000
  Se  Se2287    1.0  0.44736842092105256  0.33333333340909094  0.32365471999999995  1.0000
  Se  Se2288    1.0  0.46052631592105264  0.32575757568181823  0.6763452799999999  1.0000
  Se  Se2289    1.0  0.4473684210526315  0.31818181818181823  0.0  1.0000
  In  In1527    1.0  0.4473684211842105  0.34848484840909094  0.1896293  1.0000
  Se  Se2290    1.0  0.4473684211842105  0.34848484840909094  0.6763452799999999  1.0000
  In  In1528    1.0  0.4605263156578947  0.3560606061363637  0.8103706999999999  1.0000
  Se  Se2291    1.0  0.4605263156578947  0.3560606061363637  0.32365471999999995  1.0000
  Se  Se2292    1.0  0.4605263157894736  0.34090909090909094  0.0  1.0000
  In  In1529    1.0  0.44736842092105256  0.3787878788636364  0.8103706999999999  1.0000
  In  In1530    1.0  0.46052631592105264  0.3712121211363637  0.1896293  1.0000
  Se  Se2293    1.0  0.44736842092105256  0.3787878788636364  0.32365471999999995  1.0000
  Se  Se2294    1.0  0.46052631592105264  0.3712121211363637  0.6763452799999999  1.0000
  Se  Se2295    1.0  0.4473684210526315  0.36363636363636365  0.0  1.0000
  In  In1531    1.0  0.4473684211842105  0.3939393938636364  0.1896293  1.0000
  Se  Se2296    1.0  0.4473684211842105  0.3939393938636364  0.6763452799999999  1.0000
  In  In1532    1.0  0.4605263156578947  0.40151515159090917  0.8103706999999999  1.0000
  Se  Se2297    1.0  0.4605263156578947  0.40151515159090917  0.32365471999999995  1.0000
  Se  Se2298    1.0  0.4605263157894736  0.3863636363636364  0.0  1.0000
  In  In1533    1.0  0.44736842092105256  0.4242424243181818  0.8103706999999999  1.0000
  In  In1534    1.0  0.46052631592105264  0.4166666665909091  0.1896293  1.0000
  Se  Se2299    1.0  0.44736842092105256  0.4242424243181818  0.32365471999999995  1.0000
  Se  Se2300    1.0  0.46052631592105264  0.4166666665909091  0.6763452799999999  1.0000
  Se  Se2301    1.0  0.4473684210526315  0.4090909090909091  0.0  1.0000
  In  In1535    1.0  0.4473684211842105  0.4393939393181818  0.1896293  1.0000
  Se  Se2302    1.0  0.4473684211842105  0.4393939393181818  0.6763452799999999  1.0000
  In  In1536    1.0  0.4605263156578947  0.4469696970454546  0.8103706999999999  1.0000
  Se  Se2303    1.0  0.4605263156578947  0.4469696970454546  0.32365471999999995  1.0000
  Se  Se2304    1.0  0.4605263157894736  0.4318181818181819  0.0  1.0000
  In  In1537    1.0  0.44736842092105256  0.4696969697727273  0.8103706999999999  1.0000
  In  In1538    1.0  0.46052631592105264  0.46212121204545453  0.1896293  1.0000
  Se  Se2305    1.0  0.44736842092105256  0.4696969697727273  0.32365471999999995  1.0000
  Se  Se2306    1.0  0.46052631592105264  0.46212121204545453  0.6763452799999999  1.0000
  Se  Se2307    1.0  0.4473684210526315  0.4545454545454546  0.0  1.0000
  In  In1539    1.0  0.4473684211842105  0.4848484847727273  0.1896293  1.0000
  Se  Se2308    1.0  0.4473684211842105  0.4848484847727273  0.6763452799999999  1.0000
  In  In1540    1.0  0.4605263156578947  0.49242424250000005  0.8103706999999999  1.0000
  Se  Se2309    1.0  0.4605263156578947  0.49242424250000005  0.32365471999999995  1.0000
  Se  Se2310    1.0  0.4605263157894736  0.47727272727272735  0.0  1.0000
  In  In1541    1.0  0.44736842092105256  0.5151515152272728  0.8103706999999999  1.0000
  In  In1542    1.0  0.46052631592105264  0.5075757575  0.1896293  1.0000
  Se  Se2311    1.0  0.44736842092105256  0.5151515152272728  0.32365471999999995  1.0000
  Se  Se2312    1.0  0.46052631592105264  0.5075757575  0.6763452799999999  1.0000
  Se  Se2313    1.0  0.4473684210526315  0.5  0.0  1.0000
  In  In1543    1.0  0.4473684211842105  0.5303030302272728  0.1896293  1.0000
  Se  Se2314    1.0  0.4473684211842105  0.5303030302272728  0.6763452799999999  1.0000
  In  In1544    1.0  0.4605263156578947  0.5378787879545455  0.8103706999999999  1.0000
  Se  Se2315    1.0  0.4605263156578947  0.5378787879545455  0.32365471999999995  1.0000
  Se  Se2316    1.0  0.4605263157894736  0.5227272727272728  0.0  1.0000
  In  In1545    1.0  0.44736842092105256  0.5606060606818183  0.8103706999999999  1.0000
  In  In1546    1.0  0.46052631592105264  0.5530303029545455  0.1896293  1.0000
  Se  Se2317    1.0  0.44736842092105256  0.5606060606818183  0.32365471999999995  1.0000
  Se  Se2318    1.0  0.46052631592105264  0.5530303029545455  0.6763452799999999  1.0000
  Se  Se2319    1.0  0.4473684210526315  0.5454545454545455  0.0  1.0000
  In  In1547    1.0  0.4473684211842105  0.5757575756818183  0.1896293  1.0000
  Se  Se2320    1.0  0.4473684211842105  0.5757575756818183  0.6763452799999999  1.0000
  In  In1548    1.0  0.4605263156578947  0.583333333409091  0.8103706999999999  1.0000
  Se  Se2321    1.0  0.4605263156578947  0.583333333409091  0.32365471999999995  1.0000
  Se  Se2322    1.0  0.4605263157894736  0.5681818181818183  0.0  1.0000
  In  In1549    1.0  0.44736842092105256  0.6060606061363637  0.8103706999999999  1.0000
  In  In1550    1.0  0.46052631592105264  0.598484848409091  0.1896293  1.0000
  Se  Se2323    1.0  0.44736842092105256  0.6060606061363637  0.32365471999999995  1.0000
  Se  Se2324    1.0  0.46052631592105264  0.598484848409091  0.6763452799999999  1.0000
  Se  Se2325    1.0  0.4473684210526315  0.590909090909091  0.0  1.0000
  In  In1551    1.0  0.4473684211842105  0.6212121211363637  0.1896293  1.0000
  Se  Se2326    1.0  0.4473684211842105  0.6212121211363637  0.6763452799999999  1.0000
  In  In1552    1.0  0.4605263156578947  0.6287878788636365  0.8103706999999999  1.0000
  Se  Se2327    1.0  0.4605263156578947  0.6287878788636365  0.32365471999999995  1.0000
  Se  Se2328    1.0  0.4605263157894736  0.6136363636363638  0.0  1.0000
  In  In1553    1.0  0.44736842092105256  0.6515151515909091  0.8103706999999999  1.0000
  In  In1554    1.0  0.46052631592105264  0.6439393938636364  0.1896293  1.0000
  Se  Se2329    1.0  0.44736842092105256  0.6515151515909091  0.32365471999999995  1.0000
  Se  Se2330    1.0  0.46052631592105264  0.6439393938636364  0.6763452799999999  1.0000
  Se  Se2331    1.0  0.4473684210526315  0.6363636363636365  0.0  1.0000
  In  In1555    1.0  0.4473684211842105  0.6666666665909092  0.1896293  1.0000
  Se  Se2332    1.0  0.4473684211842105  0.6666666665909092  0.6763452799999999  1.0000
  In  In1556    1.0  0.4605263156578947  0.6742424243181819  0.8103706999999999  1.0000
  Se  Se2333    1.0  0.4605263156578947  0.6742424243181819  0.32365471999999995  1.0000
  Se  Se2334    1.0  0.4605263157894736  0.6590909090909092  0.0  1.0000
  In  In1557    1.0  0.44736842092105256  0.6969696970454546  0.8103706999999999  1.0000
  In  In1558    1.0  0.46052631592105264  0.6893939393181818  0.1896293  1.0000
  Se  Se2335    1.0  0.44736842092105256  0.6969696970454546  0.32365471999999995  1.0000
  Se  Se2336    1.0  0.46052631592105264  0.6893939393181818  0.6763452799999999  1.0000
  Se  Se2337    1.0  0.4473684210526315  0.6818181818181819  0.0  1.0000
  In  In1559    1.0  0.4473684211842105  0.7121212120454546  0.1896293  1.0000
  Se  Se2338    1.0  0.4473684211842105  0.7121212120454546  0.6763452799999999  1.0000
  In  In1560    1.0  0.4605263156578947  0.7196969697727273  0.8103706999999999  1.0000
  Se  Se2339    1.0  0.4605263156578947  0.7196969697727273  0.32365471999999995  1.0000
  Se  Se2340    1.0  0.4605263157894736  0.7045454545454547  0.0  1.0000
  In  In1561    1.0  0.44736842092105256  0.7424242425  0.8103706999999999  1.0000
  In  In1562    1.0  0.46052631592105264  0.7348484847727274  0.1896293  1.0000
  Se  Se2341    1.0  0.44736842092105256  0.7424242425  0.32365471999999995  1.0000
  Se  Se2342    1.0  0.46052631592105264  0.7348484847727274  0.6763452799999999  1.0000
  Se  Se2343    1.0  0.4473684210526315  0.7272727272727273  0.0  1.0000
  In  In1563    1.0  0.4473684211842105  0.7575757575000001  0.1896293  1.0000
  Se  Se2344    1.0  0.4473684211842105  0.7575757575000001  0.6763452799999999  1.0000
  In  In1564    1.0  0.4605263156578947  0.7651515152272729  0.8103706999999999  1.0000
  Se  Se2345    1.0  0.4605263156578947  0.7651515152272729  0.32365471999999995  1.0000
  Se  Se2346    1.0  0.4605263157894736  0.7500000000000001  0.0  1.0000
  In  In1565    1.0  0.44736842092105256  0.7878787879545455  0.8103706999999999  1.0000
  In  In1566    1.0  0.46052631592105264  0.7803030302272728  0.1896293  1.0000
  Se  Se2347    1.0  0.44736842092105256  0.7878787879545455  0.32365471999999995  1.0000
  Se  Se2348    1.0  0.46052631592105264  0.7803030302272728  0.6763452799999999  1.0000
  Se  Se2349    1.0  0.4473684210526315  0.7727272727272728  0.0  1.0000
  In  In1567    1.0  0.4473684211842105  0.8030303029545455  0.1896293  1.0000
  Se  Se2350    1.0  0.4473684211842105  0.8030303029545455  0.6763452799999999  1.0000
  In  In1568    1.0  0.4605263156578947  0.8106060606818183  0.8103706999999999  1.0000
  Se  Se2351    1.0  0.4605263156578947  0.8106060606818183  0.32365471999999995  1.0000
  Se  Se2352    1.0  0.4605263157894736  0.7954545454545455  0.0  1.0000
  In  In1569    1.0  0.44736842092105256  0.833333333409091  0.8103706999999999  1.0000
  In  In1570    1.0  0.46052631592105264  0.8257575756818182  0.1896293  1.0000
  Se  Se2353    1.0  0.44736842092105256  0.833333333409091  0.32365471999999995  1.0000
  Se  Se2354    1.0  0.46052631592105264  0.8257575756818182  0.6763452799999999  1.0000
  Se  Se2355    1.0  0.4473684210526315  0.8181818181818182  0.0  1.0000
  In  In1571    1.0  0.4473684211842105  0.848484848409091  0.1896293  1.0000
  Se  Se2356    1.0  0.4473684211842105  0.848484848409091  0.6763452799999999  1.0000
  In  In1572    1.0  0.4605263156578947  0.8560606061363636  0.8103706999999999  1.0000
  Se  Se2357    1.0  0.4605263156578947  0.8560606061363636  0.32365471999999995  1.0000
  Se  Se2358    1.0  0.4605263157894736  0.840909090909091  0.0  1.0000
  In  In1573    1.0  0.44736842092105256  0.8787878788636366  0.8103706999999999  1.0000
  In  In1574    1.0  0.46052631592105264  0.8712121211363637  0.1896293  1.0000
  Se  Se2359    1.0  0.44736842092105256  0.8787878788636366  0.32365471999999995  1.0000
  Se  Se2360    1.0  0.46052631592105264  0.8712121211363637  0.6763452799999999  1.0000
  Se  Se2361    1.0  0.4473684210526315  0.8636363636363638  0.0  1.0000
  In  In1575    1.0  0.4473684211842105  0.8939393938636365  0.1896293  1.0000
  Se  Se2362    1.0  0.4473684211842105  0.8939393938636365  0.6763452799999999  1.0000
  In  In1576    1.0  0.4605263156578947  0.9015151515909092  0.8103706999999999  1.0000
  Se  Se2363    1.0  0.4605263156578947  0.9015151515909092  0.32365471999999995  1.0000
  Se  Se2364    1.0  0.4605263157894736  0.8863636363636366  0.0  1.0000
  In  In1577    1.0  0.44736842092105256  0.9242424243181819  0.8103706999999999  1.0000
  In  In1578    1.0  0.46052631592105264  0.9166666665909091  0.1896293  1.0000
  Se  Se2365    1.0  0.44736842092105256  0.9242424243181819  0.32365471999999995  1.0000
  Se  Se2366    1.0  0.46052631592105264  0.9166666665909091  0.6763452799999999  1.0000
  Se  Se2367    1.0  0.4473684210526315  0.9090909090909092  0.0  1.0000
  In  In1579    1.0  0.4473684211842105  0.9393939393181818  0.1896293  1.0000
  Se  Se2368    1.0  0.4473684211842105  0.9393939393181818  0.6763452799999999  1.0000
  In  In1580    1.0  0.4605263156578947  0.9469696970454545  0.8103706999999999  1.0000
  Se  Se2369    1.0  0.4605263156578947  0.9469696970454545  0.32365471999999995  1.0000
  Se  Se2370    1.0  0.4605263157894736  0.9318181818181819  0.0  1.0000
  In  In1581    1.0  0.44736842092105256  0.9696969697727275  0.8103706999999999  1.0000
  In  In1582    1.0  0.46052631592105264  0.9621212120454546  0.1896293  1.0000
  Se  Se2371    1.0  0.44736842092105256  0.9696969697727275  0.32365471999999995  1.0000
  Se  Se2372    1.0  0.46052631592105264  0.9621212120454546  0.6763452799999999  1.0000
  Se  Se2373    1.0  0.4473684210526315  0.9545454545454547  0.0  1.0000
  In  In1583    1.0  0.4473684211842105  0.9848484847727275  0.1896293  1.0000
  Se  Se2374    1.0  0.4473684211842105  0.9848484847727275  0.6763452799999999  1.0000
  In  In1584    1.0  0.4605263156578947  0.9924242425  0.8103706999999999  1.0000
  Se  Se2375    1.0  0.4605263156578947  0.9924242425  0.32365471999999995  1.0000
  Se  Se2376    1.0  0.4605263157894736  0.9772727272727274  0.0  1.0000
  In  In1585    1.0  0.47368421039473674  0.01515151522727273  0.8103706999999999  1.0000
  In  In1586    1.0  0.4868421053947368  0.0075757575  0.1896293  1.0000
  Se  Se2377    1.0  0.47368421039473674  0.01515151522727273  0.32365471999999995  1.0000
  Se  Se2378    1.0  0.4868421053947368  0.0075757575  0.6763452799999999  1.0000
  Se  Se2379    1.0  0.4736842105263157  0.0  0.0  1.0000
  In  In1587    1.0  0.47368421065789473  0.030303030227272734  0.1896293  1.0000
  Se  Se2380    1.0  0.47368421065789473  0.030303030227272734  0.6763452799999999  1.0000
  In  In1588    1.0  0.48684210513157894  0.03787878795454546  0.8103706999999999  1.0000
  Se  Se2381    1.0  0.48684210513157894  0.03787878795454546  0.32365471999999995  1.0000
  Se  Se2382    1.0  0.4868421052631578  0.022727272727272728  0.0  1.0000
  In  In1589    1.0  0.47368421039473674  0.06060606068181818  0.8103706999999999  1.0000
  In  In1590    1.0  0.4868421053947368  0.05303030295454546  0.1896293  1.0000
  Se  Se2383    1.0  0.47368421039473674  0.06060606068181818  0.32365471999999995  1.0000
  Se  Se2384    1.0  0.4868421053947368  0.05303030295454546  0.6763452799999999  1.0000
  Se  Se2385    1.0  0.4736842105263157  0.045454545454545456  0.0  1.0000
  In  In1591    1.0  0.47368421065789473  0.07575757568181819  0.1896293  1.0000
  Se  Se2386    1.0  0.47368421065789473  0.07575757568181819  0.6763452799999999  1.0000
  In  In1592    1.0  0.48684210513157894  0.08333333340909092  0.8103706999999999  1.0000
  Se  Se2387    1.0  0.48684210513157894  0.08333333340909092  0.32365471999999995  1.0000
  Se  Se2388    1.0  0.4868421052631578  0.06818181818181819  0.0  1.0000
  In  In1593    1.0  0.47368421039473674  0.10606060613636366  0.8103706999999999  1.0000
  In  In1594    1.0  0.4868421053947368  0.09848484840909091  0.1896293  1.0000
  Se  Se2389    1.0  0.47368421039473674  0.10606060613636366  0.32365471999999995  1.0000
  Se  Se2390    1.0  0.4868421053947368  0.09848484840909091  0.6763452799999999  1.0000
  Se  Se2391    1.0  0.4736842105263157  0.09090909090909091  0.0  1.0000
  In  In1595    1.0  0.47368421065789473  0.12121212113636365  0.1896293  1.0000
  Se  Se2392    1.0  0.47368421065789473  0.12121212113636365  0.6763452799999999  1.0000
  In  In1596    1.0  0.48684210513157894  0.12878787886363638  0.8103706999999999  1.0000
  Se  Se2393    1.0  0.48684210513157894  0.12878787886363638  0.32365471999999995  1.0000
  Se  Se2394    1.0  0.4868421052631578  0.11363636363636365  0.0  1.0000
  In  In1597    1.0  0.47368421039473674  0.15151515159090911  0.8103706999999999  1.0000
  In  In1598    1.0  0.4868421053947368  0.1439393938636364  0.1896293  1.0000
  Se  Se2395    1.0  0.47368421039473674  0.15151515159090911  0.32365471999999995  1.0000
  Se  Se2396    1.0  0.4868421053947368  0.1439393938636364  0.6763452799999999  1.0000
  Se  Se2397    1.0  0.4736842105263157  0.13636363636363638  0.0  1.0000
  In  In1599    1.0  0.47368421065789473  0.16666666659090912  0.1896293  1.0000
  Se  Se2398    1.0  0.47368421065789473  0.16666666659090912  0.6763452799999999  1.0000
  In  In1600    1.0  0.48684210513157894  0.17424242431818185  0.8103706999999999  1.0000
  Se  Se2399    1.0  0.48684210513157894  0.17424242431818185  0.32365471999999995  1.0000
  Se  Se2400    1.0  0.4868421052631578  0.15909090909090912  0.0  1.0000
  In  In1601    1.0  0.47368421039473674  0.19696969704545458  0.8103706999999999  1.0000
  In  In1602    1.0  0.4868421053947368  0.18939393931818185  0.1896293  1.0000
  Se  Se2401    1.0  0.47368421039473674  0.19696969704545458  0.32365471999999995  1.0000
  Se  Se2402    1.0  0.4868421053947368  0.18939393931818185  0.6763452799999999  1.0000
  Se  Se2403    1.0  0.4736842105263157  0.18181818181818182  0.0  1.0000
  In  In1603    1.0  0.47368421065789473  0.21212121204545456  0.1896293  1.0000
  Se  Se2404    1.0  0.47368421065789473  0.21212121204545456  0.6763452799999999  1.0000
  In  In1604    1.0  0.48684210513157894  0.21969696977272726  0.8103706999999999  1.0000
  Se  Se2405    1.0  0.48684210513157894  0.21969696977272726  0.32365471999999995  1.0000
  Se  Se2406    1.0  0.4868421052631578  0.20454545454545456  0.0  1.0000
  In  In1605    1.0  0.47368421039473674  0.2424242425  0.8103706999999999  1.0000
  In  In1606    1.0  0.4868421053947368  0.2348484847727273  0.1896293  1.0000
  Se  Se2407    1.0  0.47368421039473674  0.2424242425  0.32365471999999995  1.0000
  Se  Se2408    1.0  0.4868421053947368  0.2348484847727273  0.6763452799999999  1.0000
  Se  Se2409    1.0  0.4736842105263157  0.2272727272727273  0.0  1.0000
  In  In1607    1.0  0.47368421065789473  0.2575757575  0.1896293  1.0000
  Se  Se2410    1.0  0.47368421065789473  0.2575757575  0.6763452799999999  1.0000
  In  In1608    1.0  0.48684210513157894  0.2651515152272727  0.8103706999999999  1.0000
  Se  Se2411    1.0  0.48684210513157894  0.2651515152272727  0.32365471999999995  1.0000
  Se  Se2412    1.0  0.4868421052631578  0.25  0.0  1.0000
  In  In1609    1.0  0.47368421039473674  0.28787878795454547  0.8103706999999999  1.0000
  In  In1610    1.0  0.4868421053947368  0.28030303022727276  0.1896293  1.0000
  Se  Se2413    1.0  0.47368421039473674  0.28787878795454547  0.32365471999999995  1.0000
  Se  Se2414    1.0  0.4868421053947368  0.28030303022727276  0.6763452799999999  1.0000
  Se  Se2415    1.0  0.4736842105263157  0.27272727272727276  0.0  1.0000
  In  In1611    1.0  0.47368421065789473  0.3030303029545455  0.1896293  1.0000
  Se  Se2416    1.0  0.47368421065789473  0.3030303029545455  0.6763452799999999  1.0000
  In  In1612    1.0  0.48684210513157894  0.3106060606818183  0.8103706999999999  1.0000
  Se  Se2417    1.0  0.48684210513157894  0.3106060606818183  0.32365471999999995  1.0000
  Se  Se2418    1.0  0.4868421052631578  0.2954545454545455  0.0  1.0000
  In  In1613    1.0  0.47368421039473674  0.33333333340909094  0.8103706999999999  1.0000
  In  In1614    1.0  0.4868421053947368  0.32575757568181823  0.1896293  1.0000
  Se  Se2419    1.0  0.47368421039473674  0.33333333340909094  0.32365471999999995  1.0000
  Se  Se2420    1.0  0.4868421053947368  0.32575757568181823  0.6763452799999999  1.0000
  Se  Se2421    1.0  0.4736842105263157  0.31818181818181823  0.0  1.0000
  In  In1615    1.0  0.47368421065789473  0.34848484840909094  0.1896293  1.0000
  Se  Se2422    1.0  0.47368421065789473  0.34848484840909094  0.6763452799999999  1.0000
  In  In1616    1.0  0.48684210513157894  0.3560606061363637  0.8103706999999999  1.0000
  Se  Se2423    1.0  0.48684210513157894  0.3560606061363637  0.32365471999999995  1.0000
  Se  Se2424    1.0  0.4868421052631578  0.34090909090909094  0.0  1.0000
  In  In1617    1.0  0.47368421039473674  0.3787878788636364  0.8103706999999999  1.0000
  In  In1618    1.0  0.4868421053947368  0.3712121211363637  0.1896293  1.0000
  Se  Se2425    1.0  0.47368421039473674  0.3787878788636364  0.32365471999999995  1.0000
  Se  Se2426    1.0  0.4868421053947368  0.3712121211363637  0.6763452799999999  1.0000
  Se  Se2427    1.0  0.4736842105263157  0.36363636363636365  0.0  1.0000
  In  In1619    1.0  0.47368421065789473  0.3939393938636364  0.1896293  1.0000
  Se  Se2428    1.0  0.47368421065789473  0.3939393938636364  0.6763452799999999  1.0000
  In  In1620    1.0  0.48684210513157894  0.40151515159090917  0.8103706999999999  1.0000
  Se  Se2429    1.0  0.48684210513157894  0.40151515159090917  0.32365471999999995  1.0000
  Se  Se2430    1.0  0.4868421052631578  0.3863636363636364  0.0  1.0000
  In  In1621    1.0  0.47368421039473674  0.4242424243181818  0.8103706999999999  1.0000
  In  In1622    1.0  0.4868421053947368  0.4166666665909091  0.1896293  1.0000
  Se  Se2431    1.0  0.47368421039473674  0.4242424243181818  0.32365471999999995  1.0000
  Se  Se2432    1.0  0.4868421053947368  0.4166666665909091  0.6763452799999999  1.0000
  Se  Se2433    1.0  0.4736842105263157  0.4090909090909091  0.0  1.0000
  In  In1623    1.0  0.47368421065789473  0.4393939393181818  0.1896293  1.0000
  Se  Se2434    1.0  0.47368421065789473  0.4393939393181818  0.6763452799999999  1.0000
  In  In1624    1.0  0.48684210513157894  0.4469696970454546  0.8103706999999999  1.0000
  Se  Se2435    1.0  0.48684210513157894  0.4469696970454546  0.32365471999999995  1.0000
  Se  Se2436    1.0  0.4868421052631578  0.4318181818181819  0.0  1.0000
  In  In1625    1.0  0.47368421039473674  0.4696969697727273  0.8103706999999999  1.0000
  In  In1626    1.0  0.4868421053947368  0.46212121204545453  0.1896293  1.0000
  Se  Se2437    1.0  0.47368421039473674  0.4696969697727273  0.32365471999999995  1.0000
  Se  Se2438    1.0  0.4868421053947368  0.46212121204545453  0.6763452799999999  1.0000
  Se  Se2439    1.0  0.4736842105263157  0.4545454545454546  0.0  1.0000
  In  In1627    1.0  0.47368421065789473  0.4848484847727273  0.1896293  1.0000
  Se  Se2440    1.0  0.47368421065789473  0.4848484847727273  0.6763452799999999  1.0000
  In  In1628    1.0  0.48684210513157894  0.49242424250000005  0.8103706999999999  1.0000
  Se  Se2441    1.0  0.48684210513157894  0.49242424250000005  0.32365471999999995  1.0000
  Se  Se2442    1.0  0.4868421052631578  0.47727272727272735  0.0  1.0000
  In  In1629    1.0  0.47368421039473674  0.5151515152272728  0.8103706999999999  1.0000
  In  In1630    1.0  0.4868421053947368  0.5075757575  0.1896293  1.0000
  Se  Se2443    1.0  0.47368421039473674  0.5151515152272728  0.32365471999999995  1.0000
  Se  Se2444    1.0  0.4868421053947368  0.5075757575  0.6763452799999999  1.0000
  Se  Se2445    1.0  0.4736842105263157  0.5  0.0  1.0000
  In  In1631    1.0  0.47368421065789473  0.5303030302272728  0.1896293  1.0000
  Se  Se2446    1.0  0.47368421065789473  0.5303030302272728  0.6763452799999999  1.0000
  In  In1632    1.0  0.48684210513157894  0.5378787879545455  0.8103706999999999  1.0000
  Se  Se2447    1.0  0.48684210513157894  0.5378787879545455  0.32365471999999995  1.0000
  Se  Se2448    1.0  0.4868421052631578  0.5227272727272728  0.0  1.0000
  In  In1633    1.0  0.47368421039473674  0.5606060606818183  0.8103706999999999  1.0000
  In  In1634    1.0  0.4868421053947368  0.5530303029545455  0.1896293  1.0000
  Se  Se2449    1.0  0.47368421039473674  0.5606060606818183  0.32365471999999995  1.0000
  Se  Se2450    1.0  0.4868421053947368  0.5530303029545455  0.6763452799999999  1.0000
  Se  Se2451    1.0  0.4736842105263157  0.5454545454545455  0.0  1.0000
  In  In1635    1.0  0.47368421065789473  0.5757575756818183  0.1896293  1.0000
  Se  Se2452    1.0  0.47368421065789473  0.5757575756818183  0.6763452799999999  1.0000
  In  In1636    1.0  0.48684210513157894  0.583333333409091  0.8103706999999999  1.0000
  Se  Se2453    1.0  0.48684210513157894  0.583333333409091  0.32365471999999995  1.0000
  Se  Se2454    1.0  0.4868421052631578  0.5681818181818183  0.0  1.0000
  In  In1637    1.0  0.47368421039473674  0.6060606061363637  0.8103706999999999  1.0000
  In  In1638    1.0  0.4868421053947368  0.598484848409091  0.1896293  1.0000
  Se  Se2455    1.0  0.47368421039473674  0.6060606061363637  0.32365471999999995  1.0000
  Se  Se2456    1.0  0.4868421053947368  0.598484848409091  0.6763452799999999  1.0000
  Se  Se2457    1.0  0.4736842105263157  0.590909090909091  0.0  1.0000
  In  In1639    1.0  0.47368421065789473  0.6212121211363637  0.1896293  1.0000
  Se  Se2458    1.0  0.47368421065789473  0.6212121211363637  0.6763452799999999  1.0000
  In  In1640    1.0  0.48684210513157894  0.6287878788636365  0.8103706999999999  1.0000
  Se  Se2459    1.0  0.48684210513157894  0.6287878788636365  0.32365471999999995  1.0000
  Se  Se2460    1.0  0.4868421052631578  0.6136363636363638  0.0  1.0000
  In  In1641    1.0  0.47368421039473674  0.6515151515909091  0.8103706999999999  1.0000
  In  In1642    1.0  0.4868421053947368  0.6439393938636364  0.1896293  1.0000
  Se  Se2461    1.0  0.47368421039473674  0.6515151515909091  0.32365471999999995  1.0000
  Se  Se2462    1.0  0.4868421053947368  0.6439393938636364  0.6763452799999999  1.0000
  Se  Se2463    1.0  0.4736842105263157  0.6363636363636365  0.0  1.0000
  In  In1643    1.0  0.47368421065789473  0.6666666665909092  0.1896293  1.0000
  Se  Se2464    1.0  0.47368421065789473  0.6666666665909092  0.6763452799999999  1.0000
  In  In1644    1.0  0.48684210513157894  0.6742424243181819  0.8103706999999999  1.0000
  Se  Se2465    1.0  0.48684210513157894  0.6742424243181819  0.32365471999999995  1.0000
  Se  Se2466    1.0  0.4868421052631578  0.6590909090909092  0.0  1.0000
  In  In1645    1.0  0.47368421039473674  0.6969696970454546  0.8103706999999999  1.0000
  In  In1646    1.0  0.4868421053947368  0.6893939393181818  0.1896293  1.0000
  Se  Se2467    1.0  0.47368421039473674  0.6969696970454546  0.32365471999999995  1.0000
  Se  Se2468    1.0  0.4868421053947368  0.6893939393181818  0.6763452799999999  1.0000
  Se  Se2469    1.0  0.4736842105263157  0.6818181818181819  0.0  1.0000
  In  In1647    1.0  0.47368421065789473  0.7121212120454546  0.1896293  1.0000
  Se  Se2470    1.0  0.47368421065789473  0.7121212120454546  0.6763452799999999  1.0000
  In  In1648    1.0  0.48684210513157894  0.7196969697727273  0.8103706999999999  1.0000
  Se  Se2471    1.0  0.48684210513157894  0.7196969697727273  0.32365471999999995  1.0000
  Se  Se2472    1.0  0.4868421052631578  0.7045454545454547  0.0  1.0000
  In  In1649    1.0  0.47368421039473674  0.7424242425  0.8103706999999999  1.0000
  In  In1650    1.0  0.4868421053947368  0.7348484847727274  0.1896293  1.0000
  Se  Se2473    1.0  0.47368421039473674  0.7424242425  0.32365471999999995  1.0000
  Se  Se2474    1.0  0.4868421053947368  0.7348484847727274  0.6763452799999999  1.0000
  Se  Se2475    1.0  0.4736842105263157  0.7272727272727273  0.0  1.0000
  In  In1651    1.0  0.47368421065789473  0.7575757575000001  0.1896293  1.0000
  Se  Se2476    1.0  0.47368421065789473  0.7575757575000001  0.6763452799999999  1.0000
  In  In1652    1.0  0.48684210513157894  0.7651515152272729  0.8103706999999999  1.0000
  Se  Se2477    1.0  0.48684210513157894  0.7651515152272729  0.32365471999999995  1.0000
  Se  Se2478    1.0  0.4868421052631578  0.7500000000000001  0.0  1.0000
  In  In1653    1.0  0.47368421039473674  0.7878787879545455  0.8103706999999999  1.0000
  In  In1654    1.0  0.4868421053947368  0.7803030302272728  0.1896293  1.0000
  Se  Se2479    1.0  0.47368421039473674  0.7878787879545455  0.32365471999999995  1.0000
  Se  Se2480    1.0  0.4868421053947368  0.7803030302272728  0.6763452799999999  1.0000
  Se  Se2481    1.0  0.4736842105263157  0.7727272727272728  0.0  1.0000
  In  In1655    1.0  0.47368421065789473  0.8030303029545455  0.1896293  1.0000
  Se  Se2482    1.0  0.47368421065789473  0.8030303029545455  0.6763452799999999  1.0000
  In  In1656    1.0  0.48684210513157894  0.8106060606818183  0.8103706999999999  1.0000
  Se  Se2483    1.0  0.48684210513157894  0.8106060606818183  0.32365471999999995  1.0000
  Se  Se2484    1.0  0.4868421052631578  0.7954545454545455  0.0  1.0000
  In  In1657    1.0  0.47368421039473674  0.833333333409091  0.8103706999999999  1.0000
  In  In1658    1.0  0.4868421053947368  0.8257575756818182  0.1896293  1.0000
  Se  Se2485    1.0  0.47368421039473674  0.833333333409091  0.32365471999999995  1.0000
  Se  Se2486    1.0  0.4868421053947368  0.8257575756818182  0.6763452799999999  1.0000
  Se  Se2487    1.0  0.4736842105263157  0.8181818181818182  0.0  1.0000
  In  In1659    1.0  0.47368421065789473  0.848484848409091  0.1896293  1.0000
  Se  Se2488    1.0  0.47368421065789473  0.848484848409091  0.6763452799999999  1.0000
  In  In1660    1.0  0.48684210513157894  0.8560606061363636  0.8103706999999999  1.0000
  Se  Se2489    1.0  0.48684210513157894  0.8560606061363636  0.32365471999999995  1.0000
  Se  Se2490    1.0  0.4868421052631578  0.840909090909091  0.0  1.0000
  In  In1661    1.0  0.47368421039473674  0.8787878788636366  0.8103706999999999  1.0000
  In  In1662    1.0  0.4868421053947368  0.8712121211363637  0.1896293  1.0000
  Se  Se2491    1.0  0.47368421039473674  0.8787878788636366  0.32365471999999995  1.0000
  Se  Se2492    1.0  0.4868421053947368  0.8712121211363637  0.6763452799999999  1.0000
  Se  Se2493    1.0  0.4736842105263157  0.8636363636363638  0.0  1.0000
  In  In1663    1.0  0.47368421065789473  0.8939393938636365  0.1896293  1.0000
  Se  Se2494    1.0  0.47368421065789473  0.8939393938636365  0.6763452799999999  1.0000
  In  In1664    1.0  0.48684210513157894  0.9015151515909092  0.8103706999999999  1.0000
  Se  Se2495    1.0  0.48684210513157894  0.9015151515909092  0.32365471999999995  1.0000
  Se  Se2496    1.0  0.4868421052631578  0.8863636363636366  0.0  1.0000
  In  In1665    1.0  0.47368421039473674  0.9242424243181819  0.8103706999999999  1.0000
  In  In1666    1.0  0.4868421053947368  0.9166666665909091  0.1896293  1.0000
  Se  Se2497    1.0  0.47368421039473674  0.9242424243181819  0.32365471999999995  1.0000
  Se  Se2498    1.0  0.4868421053947368  0.9166666665909091  0.6763452799999999  1.0000
  Se  Se2499    1.0  0.4736842105263157  0.9090909090909092  0.0  1.0000
  In  In1667    1.0  0.47368421065789473  0.9393939393181818  0.1896293  1.0000
  Se  Se2500    1.0  0.47368421065789473  0.9393939393181818  0.6763452799999999  1.0000
  In  In1668    1.0  0.48684210513157894  0.9469696970454545  0.8103706999999999  1.0000
  Se  Se2501    1.0  0.48684210513157894  0.9469696970454545  0.32365471999999995  1.0000
  Se  Se2502    1.0  0.4868421052631578  0.9318181818181819  0.0  1.0000
  In  In1669    1.0  0.47368421039473674  0.9696969697727275  0.8103706999999999  1.0000
  In  In1670    1.0  0.4868421053947368  0.9621212120454546  0.1896293  1.0000
  Se  Se2503    1.0  0.47368421039473674  0.9696969697727275  0.32365471999999995  1.0000
  Se  Se2504    1.0  0.4868421053947368  0.9621212120454546  0.6763452799999999  1.0000
  Se  Se2505    1.0  0.4736842105263157  0.9545454545454547  0.0  1.0000
  In  In1671    1.0  0.47368421065789473  0.9848484847727275  0.1896293  1.0000
  Se  Se2506    1.0  0.47368421065789473  0.9848484847727275  0.6763452799999999  1.0000
  In  In1672    1.0  0.48684210513157894  0.9924242425  0.8103706999999999  1.0000
  Se  Se2507    1.0  0.48684210513157894  0.9924242425  0.32365471999999995  1.0000
  Se  Se2508    1.0  0.4868421052631578  0.9772727272727274  0.0  1.0000
  In  In1673    1.0  0.49999999986842103  0.01515151522727273  0.8103706999999999  1.0000
  In  In1674    1.0  0.5131578948684211  0.0075757575  0.1896293  1.0000
  Se  Se2509    1.0  0.49999999986842103  0.01515151522727273  0.32365471999999995  1.0000
  Se  Se2510    1.0  0.5131578948684211  0.0075757575  0.6763452799999999  1.0000
  Se  Se2511    1.0  0.5  0.0  0.0  1.0000
  In  In1675    1.0  0.500000000131579  0.030303030227272734  0.1896293  1.0000
  Se  Se2512    1.0  0.500000000131579  0.030303030227272734  0.6763452799999999  1.0000
  In  In1676    1.0  0.5131578946052632  0.03787878795454546  0.8103706999999999  1.0000
  Se  Se2513    1.0  0.5131578946052632  0.03787878795454546  0.32365471999999995  1.0000
  Se  Se2514    1.0  0.5131578947368421  0.022727272727272728  0.0  1.0000
  In  In1677    1.0  0.49999999986842103  0.06060606068181818  0.8103706999999999  1.0000
  In  In1678    1.0  0.5131578948684211  0.05303030295454546  0.1896293  1.0000
  Se  Se2515    1.0  0.49999999986842103  0.06060606068181818  0.32365471999999995  1.0000
  Se  Se2516    1.0  0.5131578948684211  0.05303030295454546  0.6763452799999999  1.0000
  Se  Se2517    1.0  0.5  0.045454545454545456  0.0  1.0000
  In  In1679    1.0  0.500000000131579  0.07575757568181819  0.1896293  1.0000
  Se  Se2518    1.0  0.500000000131579  0.07575757568181819  0.6763452799999999  1.0000
  In  In1680    1.0  0.5131578946052632  0.08333333340909092  0.8103706999999999  1.0000
  Se  Se2519    1.0  0.5131578946052632  0.08333333340909092  0.32365471999999995  1.0000
  Se  Se2520    1.0  0.5131578947368421  0.06818181818181819  0.0  1.0000
  In  In1681    1.0  0.49999999986842103  0.10606060613636366  0.8103706999999999  1.0000
  In  In1682    1.0  0.5131578948684211  0.09848484840909091  0.1896293  1.0000
  Se  Se2521    1.0  0.49999999986842103  0.10606060613636366  0.32365471999999995  1.0000
  Se  Se2522    1.0  0.5131578948684211  0.09848484840909091  0.6763452799999999  1.0000
  Se  Se2523    1.0  0.5  0.09090909090909091  0.0  1.0000
  In  In1683    1.0  0.500000000131579  0.12121212113636365  0.1896293  1.0000
  Se  Se2524    1.0  0.500000000131579  0.12121212113636365  0.6763452799999999  1.0000
  In  In1684    1.0  0.5131578946052632  0.12878787886363638  0.8103706999999999  1.0000
  Se  Se2525    1.0  0.5131578946052632  0.12878787886363638  0.32365471999999995  1.0000
  Se  Se2526    1.0  0.5131578947368421  0.11363636363636365  0.0  1.0000
  In  In1685    1.0  0.49999999986842103  0.15151515159090911  0.8103706999999999  1.0000
  In  In1686    1.0  0.5131578948684211  0.1439393938636364  0.1896293  1.0000
  Se  Se2527    1.0  0.49999999986842103  0.15151515159090911  0.32365471999999995  1.0000
  Se  Se2528    1.0  0.5131578948684211  0.1439393938636364  0.6763452799999999  1.0000
  Se  Se2529    1.0  0.5  0.13636363636363638  0.0  1.0000
  In  In1687    1.0  0.500000000131579  0.16666666659090912  0.1896293  1.0000
  Se  Se2530    1.0  0.500000000131579  0.16666666659090912  0.6763452799999999  1.0000
  In  In1688    1.0  0.5131578946052632  0.17424242431818185  0.8103706999999999  1.0000
  Se  Se2531    1.0  0.5131578946052632  0.17424242431818185  0.32365471999999995  1.0000
  Se  Se2532    1.0  0.5131578947368421  0.15909090909090912  0.0  1.0000
  In  In1689    1.0  0.49999999986842103  0.19696969704545458  0.8103706999999999  1.0000
  In  In1690    1.0  0.5131578948684211  0.18939393931818185  0.1896293  1.0000
  Se  Se2533    1.0  0.49999999986842103  0.19696969704545458  0.32365471999999995  1.0000
  Se  Se2534    1.0  0.5131578948684211  0.18939393931818185  0.6763452799999999  1.0000
  Se  Se2535    1.0  0.5  0.18181818181818182  0.0  1.0000
  In  In1691    1.0  0.500000000131579  0.21212121204545456  0.1896293  1.0000
  Se  Se2536    1.0  0.500000000131579  0.21212121204545456  0.6763452799999999  1.0000
  In  In1692    1.0  0.5131578946052632  0.21969696977272726  0.8103706999999999  1.0000
  Se  Se2537    1.0  0.5131578946052632  0.21969696977272726  0.32365471999999995  1.0000
  Se  Se2538    1.0  0.5131578947368421  0.20454545454545456  0.0  1.0000
  In  In1693    1.0  0.49999999986842103  0.2424242425  0.8103706999999999  1.0000
  In  In1694    1.0  0.5131578948684211  0.2348484847727273  0.1896293  1.0000
  Se  Se2539    1.0  0.49999999986842103  0.2424242425  0.32365471999999995  1.0000
  Se  Se2540    1.0  0.5131578948684211  0.2348484847727273  0.6763452799999999  1.0000
  Se  Se2541    1.0  0.5  0.2272727272727273  0.0  1.0000
  In  In1695    1.0  0.500000000131579  0.2575757575  0.1896293  1.0000
  Se  Se2542    1.0  0.500000000131579  0.2575757575  0.6763452799999999  1.0000
  In  In1696    1.0  0.5131578946052632  0.2651515152272727  0.8103706999999999  1.0000
  Se  Se2543    1.0  0.5131578946052632  0.2651515152272727  0.32365471999999995  1.0000
  Se  Se2544    1.0  0.5131578947368421  0.25  0.0  1.0000
  In  In1697    1.0  0.49999999986842103  0.28787878795454547  0.8103706999999999  1.0000
  In  In1698    1.0  0.5131578948684211  0.28030303022727276  0.1896293  1.0000
  Se  Se2545    1.0  0.49999999986842103  0.28787878795454547  0.32365471999999995  1.0000
  Se  Se2546    1.0  0.5131578948684211  0.28030303022727276  0.6763452799999999  1.0000
  Se  Se2547    1.0  0.5  0.27272727272727276  0.0  1.0000
  In  In1699    1.0  0.500000000131579  0.3030303029545455  0.1896293  1.0000
  Se  Se2548    1.0  0.500000000131579  0.3030303029545455  0.6763452799999999  1.0000
  In  In1700    1.0  0.5131578946052632  0.3106060606818183  0.8103706999999999  1.0000
  Se  Se2549    1.0  0.5131578946052632  0.3106060606818183  0.32365471999999995  1.0000
  Se  Se2550    1.0  0.5131578947368421  0.2954545454545455  0.0  1.0000
  In  In1701    1.0  0.49999999986842103  0.33333333340909094  0.8103706999999999  1.0000
  In  In1702    1.0  0.5131578948684211  0.32575757568181823  0.1896293  1.0000
  Se  Se2551    1.0  0.49999999986842103  0.33333333340909094  0.32365471999999995  1.0000
  Se  Se2552    1.0  0.5131578948684211  0.32575757568181823  0.6763452799999999  1.0000
  Se  Se2553    1.0  0.5  0.31818181818181823  0.0  1.0000
  In  In1703    1.0  0.500000000131579  0.34848484840909094  0.1896293  1.0000
  Se  Se2554    1.0  0.500000000131579  0.34848484840909094  0.6763452799999999  1.0000
  In  In1704    1.0  0.5131578946052632  0.3560606061363637  0.8103706999999999  1.0000
  Se  Se2555    1.0  0.5131578946052632  0.3560606061363637  0.32365471999999995  1.0000
  Se  Se2556    1.0  0.5131578947368421  0.34090909090909094  0.0  1.0000
  In  In1705    1.0  0.49999999986842103  0.3787878788636364  0.8103706999999999  1.0000
  In  In1706    1.0  0.5131578948684211  0.3712121211363637  0.1896293  1.0000
  Se  Se2557    1.0  0.49999999986842103  0.3787878788636364  0.32365471999999995  1.0000
  Se  Se2558    1.0  0.5131578948684211  0.3712121211363637  0.6763452799999999  1.0000
  Se  Se2559    1.0  0.5  0.36363636363636365  0.0  1.0000
  In  In1707    1.0  0.500000000131579  0.3939393938636364  0.1896293  1.0000
  Se  Se2560    1.0  0.500000000131579  0.3939393938636364  0.6763452799999999  1.0000
  In  In1708    1.0  0.5131578946052632  0.40151515159090917  0.8103706999999999  1.0000
  Se  Se2561    1.0  0.5131578946052632  0.40151515159090917  0.32365471999999995  1.0000
  Se  Se2562    1.0  0.5131578947368421  0.3863636363636364  0.0  1.0000
  In  In1709    1.0  0.49999999986842103  0.4242424243181818  0.8103706999999999  1.0000
  In  In1710    1.0  0.5131578948684211  0.4166666665909091  0.1896293  1.0000
  Se  Se2563    1.0  0.49999999986842103  0.4242424243181818  0.32365471999999995  1.0000
  Se  Se2564    1.0  0.5131578948684211  0.4166666665909091  0.6763452799999999  1.0000
  Se  Se2565    1.0  0.5  0.4090909090909091  0.0  1.0000
  In  In1711    1.0  0.500000000131579  0.4393939393181818  0.1896293  1.0000
  Se  Se2566    1.0  0.500000000131579  0.4393939393181818  0.6763452799999999  1.0000
  In  In1712    1.0  0.5131578946052632  0.4469696970454546  0.8103706999999999  1.0000
  Se  Se2567    1.0  0.5131578946052632  0.4469696970454546  0.32365471999999995  1.0000
  Se  Se2568    1.0  0.5131578947368421  0.4318181818181819  0.0  1.0000
  In  In1713    1.0  0.49999999986842103  0.4696969697727273  0.8103706999999999  1.0000
  In  In1714    1.0  0.5131578948684211  0.46212121204545453  0.1896293  1.0000
  Se  Se2569    1.0  0.49999999986842103  0.4696969697727273  0.32365471999999995  1.0000
  Se  Se2570    1.0  0.5131578948684211  0.46212121204545453  0.6763452799999999  1.0000
  Se  Se2571    1.0  0.5  0.4545454545454546  0.0  1.0000
  In  In1715    1.0  0.500000000131579  0.4848484847727273  0.1896293  1.0000
  Se  Se2572    1.0  0.500000000131579  0.4848484847727273  0.6763452799999999  1.0000
  In  In1716    1.0  0.5131578946052632  0.49242424250000005  0.8103706999999999  1.0000
  Se  Se2573    1.0  0.5131578946052632  0.49242424250000005  0.32365471999999995  1.0000
  Se  Se2574    1.0  0.5131578947368421  0.47727272727272735  0.0  1.0000
  In  In1717    1.0  0.49999999986842103  0.5151515152272728  0.8103706999999999  1.0000
  In  In1718    1.0  0.5131578948684211  0.5075757575  0.1896293  1.0000
  Se  Se2575    1.0  0.49999999986842103  0.5151515152272728  0.32365471999999995  1.0000
  Se  Se2576    1.0  0.5131578948684211  0.5075757575  0.6763452799999999  1.0000
  Se  Se2577    1.0  0.5  0.5  0.0  1.0000
  In  In1719    1.0  0.500000000131579  0.5303030302272728  0.1896293  1.0000
  Se  Se2578    1.0  0.500000000131579  0.5303030302272728  0.6763452799999999  1.0000
  In  In1720    1.0  0.5131578946052632  0.5378787879545455  0.8103706999999999  1.0000
  Se  Se2579    1.0  0.5131578946052632  0.5378787879545455  0.32365471999999995  1.0000
  Se  Se2580    1.0  0.5131578947368421  0.5227272727272728  0.0  1.0000
  In  In1721    1.0  0.49999999986842103  0.5606060606818183  0.8103706999999999  1.0000
  In  In1722    1.0  0.5131578948684211  0.5530303029545455  0.1896293  1.0000
  Se  Se2581    1.0  0.49999999986842103  0.5606060606818183  0.32365471999999995  1.0000
  Se  Se2582    1.0  0.5131578948684211  0.5530303029545455  0.6763452799999999  1.0000
  Se  Se2583    1.0  0.5  0.5454545454545455  0.0  1.0000
  In  In1723    1.0  0.500000000131579  0.5757575756818183  0.1896293  1.0000
  Se  Se2584    1.0  0.500000000131579  0.5757575756818183  0.6763452799999999  1.0000
  In  In1724    1.0  0.5131578946052632  0.583333333409091  0.8103706999999999  1.0000
  Se  Se2585    1.0  0.5131578946052632  0.583333333409091  0.32365471999999995  1.0000
  Se  Se2586    1.0  0.5131578947368421  0.5681818181818183  0.0  1.0000
  In  In1725    1.0  0.49999999986842103  0.6060606061363637  0.8103706999999999  1.0000
  In  In1726    1.0  0.5131578948684211  0.598484848409091  0.1896293  1.0000
  Se  Se2587    1.0  0.49999999986842103  0.6060606061363637  0.32365471999999995  1.0000
  Se  Se2588    1.0  0.5131578948684211  0.598484848409091  0.6763452799999999  1.0000
  Se  Se2589    1.0  0.5  0.590909090909091  0.0  1.0000
  In  In1727    1.0  0.500000000131579  0.6212121211363637  0.1896293  1.0000
  Se  Se2590    1.0  0.500000000131579  0.6212121211363637  0.6763452799999999  1.0000
  In  In1728    1.0  0.5131578946052632  0.6287878788636365  0.8103706999999999  1.0000
  Se  Se2591    1.0  0.5131578946052632  0.6287878788636365  0.32365471999999995  1.0000
  Se  Se2592    1.0  0.5131578947368421  0.6136363636363638  0.0  1.0000
  In  In1729    1.0  0.49999999986842103  0.6515151515909091  0.8103706999999999  1.0000
  In  In1730    1.0  0.5131578948684211  0.6439393938636364  0.1896293  1.0000
  Se  Se2593    1.0  0.49999999986842103  0.6515151515909091  0.32365471999999995  1.0000
  Se  Se2594    1.0  0.5131578948684211  0.6439393938636364  0.6763452799999999  1.0000
  Se  Se2595    1.0  0.5  0.6363636363636365  0.0  1.0000
  In  In1731    1.0  0.500000000131579  0.6666666665909092  0.1896293  1.0000
  Se  Se2596    1.0  0.500000000131579  0.6666666665909092  0.6763452799999999  1.0000
  In  In1732    1.0  0.5131578946052632  0.6742424243181819  0.8103706999999999  1.0000
  Se  Se2597    1.0  0.5131578946052632  0.6742424243181819  0.32365471999999995  1.0000
  Se  Se2598    1.0  0.5131578947368421  0.6590909090909092  0.0  1.0000
  In  In1733    1.0  0.49999999986842103  0.6969696970454546  0.8103706999999999  1.0000
  In  In1734    1.0  0.5131578948684211  0.6893939393181818  0.1896293  1.0000
  Se  Se2599    1.0  0.49999999986842103  0.6969696970454546  0.32365471999999995  1.0000
  Se  Se2600    1.0  0.5131578948684211  0.6893939393181818  0.6763452799999999  1.0000
  Se  Se2601    1.0  0.5  0.6818181818181819  0.0  1.0000
  In  In1735    1.0  0.500000000131579  0.7121212120454546  0.1896293  1.0000
  Se  Se2602    1.0  0.500000000131579  0.7121212120454546  0.6763452799999999  1.0000
  In  In1736    1.0  0.5131578946052632  0.7196969697727273  0.8103706999999999  1.0000
  Se  Se2603    1.0  0.5131578946052632  0.7196969697727273  0.32365471999999995  1.0000
  Se  Se2604    1.0  0.5131578947368421  0.7045454545454547  0.0  1.0000
  In  In1737    1.0  0.49999999986842103  0.7424242425  0.8103706999999999  1.0000
  In  In1738    1.0  0.5131578948684211  0.7348484847727274  0.1896293  1.0000
  Se  Se2605    1.0  0.49999999986842103  0.7424242425  0.32365471999999995  1.0000
  Se  Se2606    1.0  0.5131578948684211  0.7348484847727274  0.6763452799999999  1.0000
  Se  Se2607    1.0  0.5  0.7272727272727273  0.0  1.0000
  In  In1739    1.0  0.500000000131579  0.7575757575000001  0.1896293  1.0000
  Se  Se2608    1.0  0.500000000131579  0.7575757575000001  0.6763452799999999  1.0000
  In  In1740    1.0  0.5131578946052632  0.7651515152272729  0.8103706999999999  1.0000
  Se  Se2609    1.0  0.5131578946052632  0.7651515152272729  0.32365471999999995  1.0000
  Se  Se2610    1.0  0.5131578947368421  0.7500000000000001  0.0  1.0000
  In  In1741    1.0  0.49999999986842103  0.7878787879545455  0.8103706999999999  1.0000
  In  In1742    1.0  0.5131578948684211  0.7803030302272728  0.1896293  1.0000
  Se  Se2611    1.0  0.49999999986842103  0.7878787879545455  0.32365471999999995  1.0000
  Se  Se2612    1.0  0.5131578948684211  0.7803030302272728  0.6763452799999999  1.0000
  Se  Se2613    1.0  0.5  0.7727272727272728  0.0  1.0000
  In  In1743    1.0  0.500000000131579  0.8030303029545455  0.1896293  1.0000
  Se  Se2614    1.0  0.500000000131579  0.8030303029545455  0.6763452799999999  1.0000
  In  In1744    1.0  0.5131578946052632  0.8106060606818183  0.8103706999999999  1.0000
  Se  Se2615    1.0  0.5131578946052632  0.8106060606818183  0.32365471999999995  1.0000
  Se  Se2616    1.0  0.5131578947368421  0.7954545454545455  0.0  1.0000
  In  In1745    1.0  0.49999999986842103  0.833333333409091  0.8103706999999999  1.0000
  In  In1746    1.0  0.5131578948684211  0.8257575756818182  0.1896293  1.0000
  Se  Se2617    1.0  0.49999999986842103  0.833333333409091  0.32365471999999995  1.0000
  Se  Se2618    1.0  0.5131578948684211  0.8257575756818182  0.6763452799999999  1.0000
  Se  Se2619    1.0  0.5  0.8181818181818182  0.0  1.0000
  In  In1747    1.0  0.500000000131579  0.848484848409091  0.1896293  1.0000
  Se  Se2620    1.0  0.500000000131579  0.848484848409091  0.6763452799999999  1.0000
  In  In1748    1.0  0.5131578946052632  0.8560606061363636  0.8103706999999999  1.0000
  Se  Se2621    1.0  0.5131578946052632  0.8560606061363636  0.32365471999999995  1.0000
  Se  Se2622    1.0  0.5131578947368421  0.840909090909091  0.0  1.0000
  In  In1749    1.0  0.49999999986842103  0.8787878788636366  0.8103706999999999  1.0000
  In  In1750    1.0  0.5131578948684211  0.8712121211363637  0.1896293  1.0000
  Se  Se2623    1.0  0.49999999986842103  0.8787878788636366  0.32365471999999995  1.0000
  Se  Se2624    1.0  0.5131578948684211  0.8712121211363637  0.6763452799999999  1.0000
  Se  Se2625    1.0  0.5  0.8636363636363638  0.0  1.0000
  In  In1751    1.0  0.500000000131579  0.8939393938636365  0.1896293  1.0000
  Se  Se2626    1.0  0.500000000131579  0.8939393938636365  0.6763452799999999  1.0000
  In  In1752    1.0  0.5131578946052632  0.9015151515909092  0.8103706999999999  1.0000
  Se  Se2627    1.0  0.5131578946052632  0.9015151515909092  0.32365471999999995  1.0000
  Se  Se2628    1.0  0.5131578947368421  0.8863636363636366  0.0  1.0000
  In  In1753    1.0  0.49999999986842103  0.9242424243181819  0.8103706999999999  1.0000
  In  In1754    1.0  0.5131578948684211  0.9166666665909091  0.1896293  1.0000
  Se  Se2629    1.0  0.49999999986842103  0.9242424243181819  0.32365471999999995  1.0000
  Se  Se2630    1.0  0.5131578948684211  0.9166666665909091  0.6763452799999999  1.0000
  Se  Se2631    1.0  0.5  0.9090909090909092  0.0  1.0000
  In  In1755    1.0  0.500000000131579  0.9393939393181818  0.1896293  1.0000
  Se  Se2632    1.0  0.500000000131579  0.9393939393181818  0.6763452799999999  1.0000
  In  In1756    1.0  0.5131578946052632  0.9469696970454545  0.8103706999999999  1.0000
  Se  Se2633    1.0  0.5131578946052632  0.9469696970454545  0.32365471999999995  1.0000
  Se  Se2634    1.0  0.5131578947368421  0.9318181818181819  0.0  1.0000
  In  In1757    1.0  0.49999999986842103  0.9696969697727275  0.8103706999999999  1.0000
  In  In1758    1.0  0.5131578948684211  0.9621212120454546  0.1896293  1.0000
  Se  Se2635    1.0  0.49999999986842103  0.9696969697727275  0.32365471999999995  1.0000
  Se  Se2636    1.0  0.5131578948684211  0.9621212120454546  0.6763452799999999  1.0000
  Se  Se2637    1.0  0.5  0.9545454545454547  0.0  1.0000
  In  In1759    1.0  0.500000000131579  0.9848484847727275  0.1896293  1.0000
  Se  Se2638    1.0  0.500000000131579  0.9848484847727275  0.6763452799999999  1.0000
  In  In1760    1.0  0.5131578946052632  0.9924242425  0.8103706999999999  1.0000
  Se  Se2639    1.0  0.5131578946052632  0.9924242425  0.32365471999999995  1.0000
  Se  Se2640    1.0  0.5131578947368421  0.9772727272727274  0.0  1.0000
  In  In1761    1.0  0.5263157893421052  0.01515151522727273  0.8103706999999999  1.0000
  In  In1762    1.0  0.5394736843421053  0.0075757575  0.1896293  1.0000
  Se  Se2641    1.0  0.5263157893421052  0.01515151522727273  0.32365471999999995  1.0000
  Se  Se2642    1.0  0.5394736843421053  0.0075757575  0.6763452799999999  1.0000
  Se  Se2643    1.0  0.5263157894736842  0.0  0.0  1.0000
  In  In1763    1.0  0.5263157896052632  0.030303030227272734  0.1896293  1.0000
  Se  Se2644    1.0  0.5263157896052632  0.030303030227272734  0.6763452799999999  1.0000
  In  In1764    1.0  0.5394736840789474  0.03787878795454546  0.8103706999999999  1.0000
  Se  Se2645    1.0  0.5394736840789474  0.03787878795454546  0.32365471999999995  1.0000
  Se  Se2646    1.0  0.5394736842105263  0.022727272727272728  0.0  1.0000
  In  In1765    1.0  0.5263157893421052  0.06060606068181818  0.8103706999999999  1.0000
  In  In1766    1.0  0.5394736843421053  0.05303030295454546  0.1896293  1.0000
  Se  Se2647    1.0  0.5263157893421052  0.06060606068181818  0.32365471999999995  1.0000
  Se  Se2648    1.0  0.5394736843421053  0.05303030295454546  0.6763452799999999  1.0000
  Se  Se2649    1.0  0.5263157894736842  0.045454545454545456  0.0  1.0000
  In  In1767    1.0  0.5263157896052632  0.07575757568181819  0.1896293  1.0000
  Se  Se2650    1.0  0.5263157896052632  0.07575757568181819  0.6763452799999999  1.0000
  In  In1768    1.0  0.5394736840789474  0.08333333340909092  0.8103706999999999  1.0000
  Se  Se2651    1.0  0.5394736840789474  0.08333333340909092  0.32365471999999995  1.0000
  Se  Se2652    1.0  0.5394736842105263  0.06818181818181819  0.0  1.0000
  In  In1769    1.0  0.5263157893421052  0.10606060613636366  0.8103706999999999  1.0000
  In  In1770    1.0  0.5394736843421053  0.09848484840909091  0.1896293  1.0000
  Se  Se2653    1.0  0.5263157893421052  0.10606060613636366  0.32365471999999995  1.0000
  Se  Se2654    1.0  0.5394736843421053  0.09848484840909091  0.6763452799999999  1.0000
  Se  Se2655    1.0  0.5263157894736842  0.09090909090909091  0.0  1.0000
  In  In1771    1.0  0.5263157896052632  0.12121212113636365  0.1896293  1.0000
  Se  Se2656    1.0  0.5263157896052632  0.12121212113636365  0.6763452799999999  1.0000
  In  In1772    1.0  0.5394736840789474  0.12878787886363638  0.8103706999999999  1.0000
  Se  Se2657    1.0  0.5394736840789474  0.12878787886363638  0.32365471999999995  1.0000
  Se  Se2658    1.0  0.5394736842105263  0.11363636363636365  0.0  1.0000
  In  In1773    1.0  0.5263157893421052  0.15151515159090911  0.8103706999999999  1.0000
  In  In1774    1.0  0.5394736843421053  0.1439393938636364  0.1896293  1.0000
  Se  Se2659    1.0  0.5263157893421052  0.15151515159090911  0.32365471999999995  1.0000
  Se  Se2660    1.0  0.5394736843421053  0.1439393938636364  0.6763452799999999  1.0000
  Se  Se2661    1.0  0.5263157894736842  0.13636363636363638  0.0  1.0000
  In  In1775    1.0  0.5263157896052632  0.16666666659090912  0.1896293  1.0000
  Se  Se2662    1.0  0.5263157896052632  0.16666666659090912  0.6763452799999999  1.0000
  In  In1776    1.0  0.5394736840789474  0.17424242431818185  0.8103706999999999  1.0000
  Se  Se2663    1.0  0.5394736840789474  0.17424242431818185  0.32365471999999995  1.0000
  Se  Se2664    1.0  0.5394736842105263  0.15909090909090912  0.0  1.0000
  In  In1777    1.0  0.5263157893421052  0.19696969704545458  0.8103706999999999  1.0000
  In  In1778    1.0  0.5394736843421053  0.18939393931818185  0.1896293  1.0000
  Se  Se2665    1.0  0.5263157893421052  0.19696969704545458  0.32365471999999995  1.0000
  Se  Se2666    1.0  0.5394736843421053  0.18939393931818185  0.6763452799999999  1.0000
  Se  Se2667    1.0  0.5263157894736842  0.18181818181818182  0.0  1.0000
  In  In1779    1.0  0.5263157896052632  0.21212121204545456  0.1896293  1.0000
  Se  Se2668    1.0  0.5263157896052632  0.21212121204545456  0.6763452799999999  1.0000
  In  In1780    1.0  0.5394736840789474  0.21969696977272726  0.8103706999999999  1.0000
  Se  Se2669    1.0  0.5394736840789474  0.21969696977272726  0.32365471999999995  1.0000
  Se  Se2670    1.0  0.5394736842105263  0.20454545454545456  0.0  1.0000
  In  In1781    1.0  0.5263157893421052  0.2424242425  0.8103706999999999  1.0000
  In  In1782    1.0  0.5394736843421053  0.2348484847727273  0.1896293  1.0000
  Se  Se2671    1.0  0.5263157893421052  0.2424242425  0.32365471999999995  1.0000
  Se  Se2672    1.0  0.5394736843421053  0.2348484847727273  0.6763452799999999  1.0000
  Se  Se2673    1.0  0.5263157894736842  0.2272727272727273  0.0  1.0000
  In  In1783    1.0  0.5263157896052632  0.2575757575  0.1896293  1.0000
  Se  Se2674    1.0  0.5263157896052632  0.2575757575  0.6763452799999999  1.0000
  In  In1784    1.0  0.5394736840789474  0.2651515152272727  0.8103706999999999  1.0000
  Se  Se2675    1.0  0.5394736840789474  0.2651515152272727  0.32365471999999995  1.0000
  Se  Se2676    1.0  0.5394736842105263  0.25  0.0  1.0000
  In  In1785    1.0  0.5263157893421052  0.28787878795454547  0.8103706999999999  1.0000
  In  In1786    1.0  0.5394736843421053  0.28030303022727276  0.1896293  1.0000
  Se  Se2677    1.0  0.5263157893421052  0.28787878795454547  0.32365471999999995  1.0000
  Se  Se2678    1.0  0.5394736843421053  0.28030303022727276  0.6763452799999999  1.0000
  Se  Se2679    1.0  0.5263157894736842  0.27272727272727276  0.0  1.0000
  In  In1787    1.0  0.5263157896052632  0.3030303029545455  0.1896293  1.0000
  Se  Se2680    1.0  0.5263157896052632  0.3030303029545455  0.6763452799999999  1.0000
  In  In1788    1.0  0.5394736840789474  0.3106060606818183  0.8103706999999999  1.0000
  Se  Se2681    1.0  0.5394736840789474  0.3106060606818183  0.32365471999999995  1.0000
  Se  Se2682    1.0  0.5394736842105263  0.2954545454545455  0.0  1.0000
  In  In1789    1.0  0.5263157893421052  0.33333333340909094  0.8103706999999999  1.0000
  In  In1790    1.0  0.5394736843421053  0.32575757568181823  0.1896293  1.0000
  Se  Se2683    1.0  0.5263157893421052  0.33333333340909094  0.32365471999999995  1.0000
  Se  Se2684    1.0  0.5394736843421053  0.32575757568181823  0.6763452799999999  1.0000
  Se  Se2685    1.0  0.5263157894736842  0.31818181818181823  0.0  1.0000
  In  In1791    1.0  0.5263157896052632  0.34848484840909094  0.1896293  1.0000
  Se  Se2686    1.0  0.5263157896052632  0.34848484840909094  0.6763452799999999  1.0000
  In  In1792    1.0  0.5394736840789474  0.3560606061363637  0.8103706999999999  1.0000
  Se  Se2687    1.0  0.5394736840789474  0.3560606061363637  0.32365471999999995  1.0000
  Se  Se2688    1.0  0.5394736842105263  0.34090909090909094  0.0  1.0000
  In  In1793    1.0  0.5263157893421052  0.3787878788636364  0.8103706999999999  1.0000
  In  In1794    1.0  0.5394736843421053  0.3712121211363637  0.1896293  1.0000
  Se  Se2689    1.0  0.5263157893421052  0.3787878788636364  0.32365471999999995  1.0000
  Se  Se2690    1.0  0.5394736843421053  0.3712121211363637  0.6763452799999999  1.0000
  Se  Se2691    1.0  0.5263157894736842  0.36363636363636365  0.0  1.0000
  In  In1795    1.0  0.5263157896052632  0.3939393938636364  0.1896293  1.0000
  Se  Se2692    1.0  0.5263157896052632  0.3939393938636364  0.6763452799999999  1.0000
  In  In1796    1.0  0.5394736840789474  0.40151515159090917  0.8103706999999999  1.0000
  Se  Se2693    1.0  0.5394736840789474  0.40151515159090917  0.32365471999999995  1.0000
  Se  Se2694    1.0  0.5394736842105263  0.3863636363636364  0.0  1.0000
  In  In1797    1.0  0.5263157893421052  0.4242424243181818  0.8103706999999999  1.0000
  In  In1798    1.0  0.5394736843421053  0.4166666665909091  0.1896293  1.0000
  Se  Se2695    1.0  0.5263157893421052  0.4242424243181818  0.32365471999999995  1.0000
  Se  Se2696    1.0  0.5394736843421053  0.4166666665909091  0.6763452799999999  1.0000
  Se  Se2697    1.0  0.5263157894736842  0.4090909090909091  0.0  1.0000
  In  In1799    1.0  0.5263157896052632  0.4393939393181818  0.1896293  1.0000
  Se  Se2698    1.0  0.5263157896052632  0.4393939393181818  0.6763452799999999  1.0000
  In  In1800    1.0  0.5394736840789474  0.4469696970454546  0.8103706999999999  1.0000
  Se  Se2699    1.0  0.5394736840789474  0.4469696970454546  0.32365471999999995  1.0000
  Se  Se2700    1.0  0.5394736842105263  0.4318181818181819  0.0  1.0000
  In  In1801    1.0  0.5263157893421052  0.4696969697727273  0.8103706999999999  1.0000
  In  In1802    1.0  0.5394736843421053  0.46212121204545453  0.1896293  1.0000
  Se  Se2701    1.0  0.5263157893421052  0.4696969697727273  0.32365471999999995  1.0000
  Se  Se2702    1.0  0.5394736843421053  0.46212121204545453  0.6763452799999999  1.0000
  Se  Se2703    1.0  0.5263157894736842  0.4545454545454546  0.0  1.0000
  In  In1803    1.0  0.5263157896052632  0.4848484847727273  0.1896293  1.0000
  Se  Se2704    1.0  0.5263157896052632  0.4848484847727273  0.6763452799999999  1.0000
  In  In1804    1.0  0.5394736840789474  0.49242424250000005  0.8103706999999999  1.0000
  Se  Se2705    1.0  0.5394736840789474  0.49242424250000005  0.32365471999999995  1.0000
  Se  Se2706    1.0  0.5394736842105263  0.47727272727272735  0.0  1.0000
  In  In1805    1.0  0.5263157893421052  0.5151515152272728  0.8103706999999999  1.0000
  In  In1806    1.0  0.5394736843421053  0.5075757575  0.1896293  1.0000
  Se  Se2707    1.0  0.5263157893421052  0.5151515152272728  0.32365471999999995  1.0000
  Se  Se2708    1.0  0.5394736843421053  0.5075757575  0.6763452799999999  1.0000
  Se  Se2709    1.0  0.5263157894736842  0.5  0.0  1.0000
  In  In1807    1.0  0.5263157896052632  0.5303030302272728  0.1896293  1.0000
  Se  Se2710    1.0  0.5263157896052632  0.5303030302272728  0.6763452799999999  1.0000
  In  In1808    1.0  0.5394736840789474  0.5378787879545455  0.8103706999999999  1.0000
  Se  Se2711    1.0  0.5394736840789474  0.5378787879545455  0.32365471999999995  1.0000
  Se  Se2712    1.0  0.5394736842105263  0.5227272727272728  0.0  1.0000
  In  In1809    1.0  0.5263157893421052  0.5606060606818183  0.8103706999999999  1.0000
  In  In1810    1.0  0.5394736843421053  0.5530303029545455  0.1896293  1.0000
  Se  Se2713    1.0  0.5263157893421052  0.5606060606818183  0.32365471999999995  1.0000
  Se  Se2714    1.0  0.5394736843421053  0.5530303029545455  0.6763452799999999  1.0000
  Se  Se2715    1.0  0.5263157894736842  0.5454545454545455  0.0  1.0000
  In  In1811    1.0  0.5263157896052632  0.5757575756818183  0.1896293  1.0000
  Se  Se2716    1.0  0.5263157896052632  0.5757575756818183  0.6763452799999999  1.0000
  In  In1812    1.0  0.5394736840789474  0.583333333409091  0.8103706999999999  1.0000
  Se  Se2717    1.0  0.5394736840789474  0.583333333409091  0.32365471999999995  1.0000
  Se  Se2718    1.0  0.5394736842105263  0.5681818181818183  0.0  1.0000
  In  In1813    1.0  0.5263157893421052  0.6060606061363637  0.8103706999999999  1.0000
  In  In1814    1.0  0.5394736843421053  0.598484848409091  0.1896293  1.0000
  Se  Se2719    1.0  0.5263157893421052  0.6060606061363637  0.32365471999999995  1.0000
  Se  Se2720    1.0  0.5394736843421053  0.598484848409091  0.6763452799999999  1.0000
  Se  Se2721    1.0  0.5263157894736842  0.590909090909091  0.0  1.0000
  In  In1815    1.0  0.5263157896052632  0.6212121211363637  0.1896293  1.0000
  Se  Se2722    1.0  0.5263157896052632  0.6212121211363637  0.6763452799999999  1.0000
  In  In1816    1.0  0.5394736840789474  0.6287878788636365  0.8103706999999999  1.0000
  Se  Se2723    1.0  0.5394736840789474  0.6287878788636365  0.32365471999999995  1.0000
  Se  Se2724    1.0  0.5394736842105263  0.6136363636363638  0.0  1.0000
  In  In1817    1.0  0.5263157893421052  0.6515151515909091  0.8103706999999999  1.0000
  In  In1818    1.0  0.5394736843421053  0.6439393938636364  0.1896293  1.0000
  Se  Se2725    1.0  0.5263157893421052  0.6515151515909091  0.32365471999999995  1.0000
  Se  Se2726    1.0  0.5394736843421053  0.6439393938636364  0.6763452799999999  1.0000
  Se  Se2727    1.0  0.5263157894736842  0.6363636363636365  0.0  1.0000
  In  In1819    1.0  0.5263157896052632  0.6666666665909092  0.1896293  1.0000
  Se  Se2728    1.0  0.5263157896052632  0.6666666665909092  0.6763452799999999  1.0000
  In  In1820    1.0  0.5394736840789474  0.6742424243181819  0.8103706999999999  1.0000
  Se  Se2729    1.0  0.5394736840789474  0.6742424243181819  0.32365471999999995  1.0000
  Se  Se2730    1.0  0.5394736842105263  0.6590909090909092  0.0  1.0000
  In  In1821    1.0  0.5263157893421052  0.6969696970454546  0.8103706999999999  1.0000
  In  In1822    1.0  0.5394736843421053  0.6893939393181818  0.1896293  1.0000
  Se  Se2731    1.0  0.5263157893421052  0.6969696970454546  0.32365471999999995  1.0000
  Se  Se2732    1.0  0.5394736843421053  0.6893939393181818  0.6763452799999999  1.0000
  Se  Se2733    1.0  0.5263157894736842  0.6818181818181819  0.0  1.0000
  In  In1823    1.0  0.5263157896052632  0.7121212120454546  0.1896293  1.0000
  Se  Se2734    1.0  0.5263157896052632  0.7121212120454546  0.6763452799999999  1.0000
  In  In1824    1.0  0.5394736840789474  0.7196969697727273  0.8103706999999999  1.0000
  Se  Se2735    1.0  0.5394736840789474  0.7196969697727273  0.32365471999999995  1.0000
  Se  Se2736    1.0  0.5394736842105263  0.7045454545454547  0.0  1.0000
  In  In1825    1.0  0.5263157893421052  0.7424242425  0.8103706999999999  1.0000
  In  In1826    1.0  0.5394736843421053  0.7348484847727274  0.1896293  1.0000
  Se  Se2737    1.0  0.5263157893421052  0.7424242425  0.32365471999999995  1.0000
  Se  Se2738    1.0  0.5394736843421053  0.7348484847727274  0.6763452799999999  1.0000
  Se  Se2739    1.0  0.5263157894736842  0.7272727272727273  0.0  1.0000
  In  In1827    1.0  0.5263157896052632  0.7575757575000001  0.1896293  1.0000
  Se  Se2740    1.0  0.5263157896052632  0.7575757575000001  0.6763452799999999  1.0000
  In  In1828    1.0  0.5394736840789474  0.7651515152272729  0.8103706999999999  1.0000
  Se  Se2741    1.0  0.5394736840789474  0.7651515152272729  0.32365471999999995  1.0000
  Se  Se2742    1.0  0.5394736842105263  0.7500000000000001  0.0  1.0000
  In  In1829    1.0  0.5263157893421052  0.7878787879545455  0.8103706999999999  1.0000
  In  In1830    1.0  0.5394736843421053  0.7803030302272728  0.1896293  1.0000
  Se  Se2743    1.0  0.5263157893421052  0.7878787879545455  0.32365471999999995  1.0000
  Se  Se2744    1.0  0.5394736843421053  0.7803030302272728  0.6763452799999999  1.0000
  Se  Se2745    1.0  0.5263157894736842  0.7727272727272728  0.0  1.0000
  In  In1831    1.0  0.5263157896052632  0.8030303029545455  0.1896293  1.0000
  Se  Se2746    1.0  0.5263157896052632  0.8030303029545455  0.6763452799999999  1.0000
  In  In1832    1.0  0.5394736840789474  0.8106060606818183  0.8103706999999999  1.0000
  Se  Se2747    1.0  0.5394736840789474  0.8106060606818183  0.32365471999999995  1.0000
  Se  Se2748    1.0  0.5394736842105263  0.7954545454545455  0.0  1.0000
  In  In1833    1.0  0.5263157893421052  0.833333333409091  0.8103706999999999  1.0000
  In  In1834    1.0  0.5394736843421053  0.8257575756818182  0.1896293  1.0000
  Se  Se2749    1.0  0.5263157893421052  0.833333333409091  0.32365471999999995  1.0000
  Se  Se2750    1.0  0.5394736843421053  0.8257575756818182  0.6763452799999999  1.0000
  Se  Se2751    1.0  0.5263157894736842  0.8181818181818182  0.0  1.0000
  In  In1835    1.0  0.5263157896052632  0.848484848409091  0.1896293  1.0000
  Se  Se2752    1.0  0.5263157896052632  0.848484848409091  0.6763452799999999  1.0000
  In  In1836    1.0  0.5394736840789474  0.8560606061363636  0.8103706999999999  1.0000
  Se  Se2753    1.0  0.5394736840789474  0.8560606061363636  0.32365471999999995  1.0000
  Se  Se2754    1.0  0.5394736842105263  0.840909090909091  0.0  1.0000
  In  In1837    1.0  0.5263157893421052  0.8787878788636366  0.8103706999999999  1.0000
  In  In1838    1.0  0.5394736843421053  0.8712121211363637  0.1896293  1.0000
  Se  Se2755    1.0  0.5263157893421052  0.8787878788636366  0.32365471999999995  1.0000
  Se  Se2756    1.0  0.5394736843421053  0.8712121211363637  0.6763452799999999  1.0000
  Se  Se2757    1.0  0.5263157894736842  0.8636363636363638  0.0  1.0000
  In  In1839    1.0  0.5263157896052632  0.8939393938636365  0.1896293  1.0000
  Se  Se2758    1.0  0.5263157896052632  0.8939393938636365  0.6763452799999999  1.0000
  In  In1840    1.0  0.5394736840789474  0.9015151515909092  0.8103706999999999  1.0000
  Se  Se2759    1.0  0.5394736840789474  0.9015151515909092  0.32365471999999995  1.0000
  Se  Se2760    1.0  0.5394736842105263  0.8863636363636366  0.0  1.0000
  In  In1841    1.0  0.5263157893421052  0.9242424243181819  0.8103706999999999  1.0000
  In  In1842    1.0  0.5394736843421053  0.9166666665909091  0.1896293  1.0000
  Se  Se2761    1.0  0.5263157893421052  0.9242424243181819  0.32365471999999995  1.0000
  Se  Se2762    1.0  0.5394736843421053  0.9166666665909091  0.6763452799999999  1.0000
  Se  Se2763    1.0  0.5263157894736842  0.9090909090909092  0.0  1.0000
  In  In1843    1.0  0.5263157896052632  0.9393939393181818  0.1896293  1.0000
  Se  Se2764    1.0  0.5263157896052632  0.9393939393181818  0.6763452799999999  1.0000
  In  In1844    1.0  0.5394736840789474  0.9469696970454545  0.8103706999999999  1.0000
  Se  Se2765    1.0  0.5394736840789474  0.9469696970454545  0.32365471999999995  1.0000
  Se  Se2766    1.0  0.5394736842105263  0.9318181818181819  0.0  1.0000
  In  In1845    1.0  0.5263157893421052  0.9696969697727275  0.8103706999999999  1.0000
  In  In1846    1.0  0.5394736843421053  0.9621212120454546  0.1896293  1.0000
  Se  Se2767    1.0  0.5263157893421052  0.9696969697727275  0.32365471999999995  1.0000
  Se  Se2768    1.0  0.5394736843421053  0.9621212120454546  0.6763452799999999  1.0000
  Se  Se2769    1.0  0.5263157894736842  0.9545454545454547  0.0  1.0000
  In  In1847    1.0  0.5263157896052632  0.9848484847727275  0.1896293  1.0000
  Se  Se2770    1.0  0.5263157896052632  0.9848484847727275  0.6763452799999999  1.0000
  In  In1848    1.0  0.5394736840789474  0.9924242425  0.8103706999999999  1.0000
  Se  Se2771    1.0  0.5394736840789474  0.9924242425  0.32365471999999995  1.0000
  Se  Se2772    1.0  0.5394736842105263  0.9772727272727274  0.0  1.0000
  In  In1849    1.0  0.5526315788157894  0.01515151522727273  0.8103706999999999  1.0000
  In  In1850    1.0  0.5657894738157895  0.0075757575  0.1896293  1.0000
  Se  Se2773    1.0  0.5526315788157894  0.01515151522727273  0.32365471999999995  1.0000
  Se  Se2774    1.0  0.5657894738157895  0.0075757575  0.6763452799999999  1.0000
  Se  Se2775    1.0  0.5526315789473684  0.0  0.0  1.0000
  In  In1851    1.0  0.5526315790789473  0.030303030227272734  0.1896293  1.0000
  Se  Se2776    1.0  0.5526315790789473  0.030303030227272734  0.6763452799999999  1.0000
  In  In1852    1.0  0.5657894735526315  0.03787878795454546  0.8103706999999999  1.0000
  Se  Se2777    1.0  0.5657894735526315  0.03787878795454546  0.32365471999999995  1.0000
  Se  Se2778    1.0  0.5657894736842105  0.022727272727272728  0.0  1.0000
  In  In1853    1.0  0.5526315788157894  0.06060606068181818  0.8103706999999999  1.0000
  In  In1854    1.0  0.5657894738157895  0.05303030295454546  0.1896293  1.0000
  Se  Se2779    1.0  0.5526315788157894  0.06060606068181818  0.32365471999999995  1.0000
  Se  Se2780    1.0  0.5657894738157895  0.05303030295454546  0.6763452799999999  1.0000
  Se  Se2781    1.0  0.5526315789473684  0.045454545454545456  0.0  1.0000
  In  In1855    1.0  0.5526315790789473  0.07575757568181819  0.1896293  1.0000
  Se  Se2782    1.0  0.5526315790789473  0.07575757568181819  0.6763452799999999  1.0000
  In  In1856    1.0  0.5657894735526315  0.08333333340909092  0.8103706999999999  1.0000
  Se  Se2783    1.0  0.5657894735526315  0.08333333340909092  0.32365471999999995  1.0000
  Se  Se2784    1.0  0.5657894736842105  0.06818181818181819  0.0  1.0000
  In  In1857    1.0  0.5526315788157894  0.10606060613636366  0.8103706999999999  1.0000
  In  In1858    1.0  0.5657894738157895  0.09848484840909091  0.1896293  1.0000
  Se  Se2785    1.0  0.5526315788157894  0.10606060613636366  0.32365471999999995  1.0000
  Se  Se2786    1.0  0.5657894738157895  0.09848484840909091  0.6763452799999999  1.0000
  Se  Se2787    1.0  0.5526315789473684  0.09090909090909091  0.0  1.0000
  In  In1859    1.0  0.5526315790789473  0.12121212113636365  0.1896293  1.0000
  Se  Se2788    1.0  0.5526315790789473  0.12121212113636365  0.6763452799999999  1.0000
  In  In1860    1.0  0.5657894735526315  0.12878787886363638  0.8103706999999999  1.0000
  Se  Se2789    1.0  0.5657894735526315  0.12878787886363638  0.32365471999999995  1.0000
  Se  Se2790    1.0  0.5657894736842105  0.11363636363636365  0.0  1.0000
  In  In1861    1.0  0.5526315788157894  0.15151515159090911  0.8103706999999999  1.0000
  In  In1862    1.0  0.5657894738157895  0.1439393938636364  0.1896293  1.0000
  Se  Se2791    1.0  0.5526315788157894  0.15151515159090911  0.32365471999999995  1.0000
  Se  Se2792    1.0  0.5657894738157895  0.1439393938636364  0.6763452799999999  1.0000
  Se  Se2793    1.0  0.5526315789473684  0.13636363636363638  0.0  1.0000
  In  In1863    1.0  0.5526315790789473  0.16666666659090912  0.1896293  1.0000
  Se  Se2794    1.0  0.5526315790789473  0.16666666659090912  0.6763452799999999  1.0000
  In  In1864    1.0  0.5657894735526315  0.17424242431818185  0.8103706999999999  1.0000
  Se  Se2795    1.0  0.5657894735526315  0.17424242431818185  0.32365471999999995  1.0000
  Se  Se2796    1.0  0.5657894736842105  0.15909090909090912  0.0  1.0000
  In  In1865    1.0  0.5526315788157894  0.19696969704545458  0.8103706999999999  1.0000
  In  In1866    1.0  0.5657894738157895  0.18939393931818185  0.1896293  1.0000
  Se  Se2797    1.0  0.5526315788157894  0.19696969704545458  0.32365471999999995  1.0000
  Se  Se2798    1.0  0.5657894738157895  0.18939393931818185  0.6763452799999999  1.0000
  Se  Se2799    1.0  0.5526315789473684  0.18181818181818182  0.0  1.0000
  In  In1867    1.0  0.5526315790789473  0.21212121204545456  0.1896293  1.0000
  Se  Se2800    1.0  0.5526315790789473  0.21212121204545456  0.6763452799999999  1.0000
  In  In1868    1.0  0.5657894735526315  0.21969696977272726  0.8103706999999999  1.0000
  Se  Se2801    1.0  0.5657894735526315  0.21969696977272726  0.32365471999999995  1.0000
  Se  Se2802    1.0  0.5657894736842105  0.20454545454545456  0.0  1.0000
  In  In1869    1.0  0.5526315788157894  0.2424242425  0.8103706999999999  1.0000
  In  In1870    1.0  0.5657894738157895  0.2348484847727273  0.1896293  1.0000
  Se  Se2803    1.0  0.5526315788157894  0.2424242425  0.32365471999999995  1.0000
  Se  Se2804    1.0  0.5657894738157895  0.2348484847727273  0.6763452799999999  1.0000
  Se  Se2805    1.0  0.5526315789473684  0.2272727272727273  0.0  1.0000
  In  In1871    1.0  0.5526315790789473  0.2575757575  0.1896293  1.0000
  Se  Se2806    1.0  0.5526315790789473  0.2575757575  0.6763452799999999  1.0000
  In  In1872    1.0  0.5657894735526315  0.2651515152272727  0.8103706999999999  1.0000
  Se  Se2807    1.0  0.5657894735526315  0.2651515152272727  0.32365471999999995  1.0000
  Se  Se2808    1.0  0.5657894736842105  0.25  0.0  1.0000
  In  In1873    1.0  0.5526315788157894  0.28787878795454547  0.8103706999999999  1.0000
  In  In1874    1.0  0.5657894738157895  0.28030303022727276  0.1896293  1.0000
  Se  Se2809    1.0  0.5526315788157894  0.28787878795454547  0.32365471999999995  1.0000
  Se  Se2810    1.0  0.5657894738157895  0.28030303022727276  0.6763452799999999  1.0000
  Se  Se2811    1.0  0.5526315789473684  0.27272727272727276  0.0  1.0000
  In  In1875    1.0  0.5526315790789473  0.3030303029545455  0.1896293  1.0000
  Se  Se2812    1.0  0.5526315790789473  0.3030303029545455  0.6763452799999999  1.0000
  In  In1876    1.0  0.5657894735526315  0.3106060606818183  0.8103706999999999  1.0000
  Se  Se2813    1.0  0.5657894735526315  0.3106060606818183  0.32365471999999995  1.0000
  Se  Se2814    1.0  0.5657894736842105  0.2954545454545455  0.0  1.0000
  In  In1877    1.0  0.5526315788157894  0.33333333340909094  0.8103706999999999  1.0000
  In  In1878    1.0  0.5657894738157895  0.32575757568181823  0.1896293  1.0000
  Se  Se2815    1.0  0.5526315788157894  0.33333333340909094  0.32365471999999995  1.0000
  Se  Se2816    1.0  0.5657894738157895  0.32575757568181823  0.6763452799999999  1.0000
  Se  Se2817    1.0  0.5526315789473684  0.31818181818181823  0.0  1.0000
  In  In1879    1.0  0.5526315790789473  0.34848484840909094  0.1896293  1.0000
  Se  Se2818    1.0  0.5526315790789473  0.34848484840909094  0.6763452799999999  1.0000
  In  In1880    1.0  0.5657894735526315  0.3560606061363637  0.8103706999999999  1.0000
  Se  Se2819    1.0  0.5657894735526315  0.3560606061363637  0.32365471999999995  1.0000
  Se  Se2820    1.0  0.5657894736842105  0.34090909090909094  0.0  1.0000
  In  In1881    1.0  0.5526315788157894  0.3787878788636364  0.8103706999999999  1.0000
  In  In1882    1.0  0.5657894738157895  0.3712121211363637  0.1896293  1.0000
  Se  Se2821    1.0  0.5526315788157894  0.3787878788636364  0.32365471999999995  1.0000
  Se  Se2822    1.0  0.5657894738157895  0.3712121211363637  0.6763452799999999  1.0000
  Se  Se2823    1.0  0.5526315789473684  0.36363636363636365  0.0  1.0000
  In  In1883    1.0  0.5526315790789473  0.3939393938636364  0.1896293  1.0000
  Se  Se2824    1.0  0.5526315790789473  0.3939393938636364  0.6763452799999999  1.0000
  In  In1884    1.0  0.5657894735526315  0.40151515159090917  0.8103706999999999  1.0000
  Se  Se2825    1.0  0.5657894735526315  0.40151515159090917  0.32365471999999995  1.0000
  Se  Se2826    1.0  0.5657894736842105  0.3863636363636364  0.0  1.0000
  In  In1885    1.0  0.5526315788157894  0.4242424243181818  0.8103706999999999  1.0000
  In  In1886    1.0  0.5657894738157895  0.4166666665909091  0.1896293  1.0000
  Se  Se2827    1.0  0.5526315788157894  0.4242424243181818  0.32365471999999995  1.0000
  Se  Se2828    1.0  0.5657894738157895  0.4166666665909091  0.6763452799999999  1.0000
  Se  Se2829    1.0  0.5526315789473684  0.4090909090909091  0.0  1.0000
  In  In1887    1.0  0.5526315790789473  0.4393939393181818  0.1896293  1.0000
  Se  Se2830    1.0  0.5526315790789473  0.4393939393181818  0.6763452799999999  1.0000
  In  In1888    1.0  0.5657894735526315  0.4469696970454546  0.8103706999999999  1.0000
  Se  Se2831    1.0  0.5657894735526315  0.4469696970454546  0.32365471999999995  1.0000
  Se  Se2832    1.0  0.5657894736842105  0.4318181818181819  0.0  1.0000
  In  In1889    1.0  0.5526315788157894  0.4696969697727273  0.8103706999999999  1.0000
  In  In1890    1.0  0.5657894738157895  0.46212121204545453  0.1896293  1.0000
  Se  Se2833    1.0  0.5526315788157894  0.4696969697727273  0.32365471999999995  1.0000
  Se  Se2834    1.0  0.5657894738157895  0.46212121204545453  0.6763452799999999  1.0000
  Se  Se2835    1.0  0.5526315789473684  0.4545454545454546  0.0  1.0000
  In  In1891    1.0  0.5526315790789473  0.4848484847727273  0.1896293  1.0000
  Se  Se2836    1.0  0.5526315790789473  0.4848484847727273  0.6763452799999999  1.0000
  In  In1892    1.0  0.5657894735526315  0.49242424250000005  0.8103706999999999  1.0000
  Se  Se2837    1.0  0.5657894735526315  0.49242424250000005  0.32365471999999995  1.0000
  Se  Se2838    1.0  0.5657894736842105  0.47727272727272735  0.0  1.0000
  In  In1893    1.0  0.5526315788157894  0.5151515152272728  0.8103706999999999  1.0000
  In  In1894    1.0  0.5657894738157895  0.5075757575  0.1896293  1.0000
  Se  Se2839    1.0  0.5526315788157894  0.5151515152272728  0.32365471999999995  1.0000
  Se  Se2840    1.0  0.5657894738157895  0.5075757575  0.6763452799999999  1.0000
  Se  Se2841    1.0  0.5526315789473684  0.5  0.0  1.0000
  In  In1895    1.0  0.5526315790789473  0.5303030302272728  0.1896293  1.0000
  Se  Se2842    1.0  0.5526315790789473  0.5303030302272728  0.6763452799999999  1.0000
  In  In1896    1.0  0.5657894735526315  0.5378787879545455  0.8103706999999999  1.0000
  Se  Se2843    1.0  0.5657894735526315  0.5378787879545455  0.32365471999999995  1.0000
  Se  Se2844    1.0  0.5657894736842105  0.5227272727272728  0.0  1.0000
  In  In1897    1.0  0.5526315788157894  0.5606060606818183  0.8103706999999999  1.0000
  In  In1898    1.0  0.5657894738157895  0.5530303029545455  0.1896293  1.0000
  Se  Se2845    1.0  0.5526315788157894  0.5606060606818183  0.32365471999999995  1.0000
  Se  Se2846    1.0  0.5657894738157895  0.5530303029545455  0.6763452799999999  1.0000
  Se  Se2847    1.0  0.5526315789473684  0.5454545454545455  0.0  1.0000
  In  In1899    1.0  0.5526315790789473  0.5757575756818183  0.1896293  1.0000
  Se  Se2848    1.0  0.5526315790789473  0.5757575756818183  0.6763452799999999  1.0000
  In  In1900    1.0  0.5657894735526315  0.583333333409091  0.8103706999999999  1.0000
  Se  Se2849    1.0  0.5657894735526315  0.583333333409091  0.32365471999999995  1.0000
  Se  Se2850    1.0  0.5657894736842105  0.5681818181818183  0.0  1.0000
  In  In1901    1.0  0.5526315788157894  0.6060606061363637  0.8103706999999999  1.0000
  In  In1902    1.0  0.5657894738157895  0.598484848409091  0.1896293  1.0000
  Se  Se2851    1.0  0.5526315788157894  0.6060606061363637  0.32365471999999995  1.0000
  Se  Se2852    1.0  0.5657894738157895  0.598484848409091  0.6763452799999999  1.0000
  Se  Se2853    1.0  0.5526315789473684  0.590909090909091  0.0  1.0000
  In  In1903    1.0  0.5526315790789473  0.6212121211363637  0.1896293  1.0000
  Se  Se2854    1.0  0.5526315790789473  0.6212121211363637  0.6763452799999999  1.0000
  In  In1904    1.0  0.5657894735526315  0.6287878788636365  0.8103706999999999  1.0000
  Se  Se2855    1.0  0.5657894735526315  0.6287878788636365  0.32365471999999995  1.0000
  Se  Se2856    1.0  0.5657894736842105  0.6136363636363638  0.0  1.0000
  In  In1905    1.0  0.5526315788157894  0.6515151515909091  0.8103706999999999  1.0000
  In  In1906    1.0  0.5657894738157895  0.6439393938636364  0.1896293  1.0000
  Se  Se2857    1.0  0.5526315788157894  0.6515151515909091  0.32365471999999995  1.0000
  Se  Se2858    1.0  0.5657894738157895  0.6439393938636364  0.6763452799999999  1.0000
  Se  Se2859    1.0  0.5526315789473684  0.6363636363636365  0.0  1.0000
  In  In1907    1.0  0.5526315790789473  0.6666666665909092  0.1896293  1.0000
  Se  Se2860    1.0  0.5526315790789473  0.6666666665909092  0.6763452799999999  1.0000
  In  In1908    1.0  0.5657894735526315  0.6742424243181819  0.8103706999999999  1.0000
  Se  Se2861    1.0  0.5657894735526315  0.6742424243181819  0.32365471999999995  1.0000
  Se  Se2862    1.0  0.5657894736842105  0.6590909090909092  0.0  1.0000
  In  In1909    1.0  0.5526315788157894  0.6969696970454546  0.8103706999999999  1.0000
  In  In1910    1.0  0.5657894738157895  0.6893939393181818  0.1896293  1.0000
  Se  Se2863    1.0  0.5526315788157894  0.6969696970454546  0.32365471999999995  1.0000
  Se  Se2864    1.0  0.5657894738157895  0.6893939393181818  0.6763452799999999  1.0000
  Se  Se2865    1.0  0.5526315789473684  0.6818181818181819  0.0  1.0000
  In  In1911    1.0  0.5526315790789473  0.7121212120454546  0.1896293  1.0000
  Se  Se2866    1.0  0.5526315790789473  0.7121212120454546  0.6763452799999999  1.0000
  In  In1912    1.0  0.5657894735526315  0.7196969697727273  0.8103706999999999  1.0000
  Se  Se2867    1.0  0.5657894735526315  0.7196969697727273  0.32365471999999995  1.0000
  Se  Se2868    1.0  0.5657894736842105  0.7045454545454547  0.0  1.0000
  In  In1913    1.0  0.5526315788157894  0.7424242425  0.8103706999999999  1.0000
  In  In1914    1.0  0.5657894738157895  0.7348484847727274  0.1896293  1.0000
  Se  Se2869    1.0  0.5526315788157894  0.7424242425  0.32365471999999995  1.0000
  Se  Se2870    1.0  0.5657894738157895  0.7348484847727274  0.6763452799999999  1.0000
  Se  Se2871    1.0  0.5526315789473684  0.7272727272727273  0.0  1.0000
  In  In1915    1.0  0.5526315790789473  0.7575757575000001  0.1896293  1.0000
  Se  Se2872    1.0  0.5526315790789473  0.7575757575000001  0.6763452799999999  1.0000
  In  In1916    1.0  0.5657894735526315  0.7651515152272729  0.8103706999999999  1.0000
  Se  Se2873    1.0  0.5657894735526315  0.7651515152272729  0.32365471999999995  1.0000
  Se  Se2874    1.0  0.5657894736842105  0.7500000000000001  0.0  1.0000
  In  In1917    1.0  0.5526315788157894  0.7878787879545455  0.8103706999999999  1.0000
  In  In1918    1.0  0.5657894738157895  0.7803030302272728  0.1896293  1.0000
  Se  Se2875    1.0  0.5526315788157894  0.7878787879545455  0.32365471999999995  1.0000
  Se  Se2876    1.0  0.5657894738157895  0.7803030302272728  0.6763452799999999  1.0000
  Se  Se2877    1.0  0.5526315789473684  0.7727272727272728  0.0  1.0000
  In  In1919    1.0  0.5526315790789473  0.8030303029545455  0.1896293  1.0000
  Se  Se2878    1.0  0.5526315790789473  0.8030303029545455  0.6763452799999999  1.0000
  In  In1920    1.0  0.5657894735526315  0.8106060606818183  0.8103706999999999  1.0000
  Se  Se2879    1.0  0.5657894735526315  0.8106060606818183  0.32365471999999995  1.0000
  Se  Se2880    1.0  0.5657894736842105  0.7954545454545455  0.0  1.0000
  In  In1921    1.0  0.5526315788157894  0.833333333409091  0.8103706999999999  1.0000
  In  In1922    1.0  0.5657894738157895  0.8257575756818182  0.1896293  1.0000
  Se  Se2881    1.0  0.5526315788157894  0.833333333409091  0.32365471999999995  1.0000
  Se  Se2882    1.0  0.5657894738157895  0.8257575756818182  0.6763452799999999  1.0000
  Se  Se2883    1.0  0.5526315789473684  0.8181818181818182  0.0  1.0000
  In  In1923    1.0  0.5526315790789473  0.848484848409091  0.1896293  1.0000
  Se  Se2884    1.0  0.5526315790789473  0.848484848409091  0.6763452799999999  1.0000
  In  In1924    1.0  0.5657894735526315  0.8560606061363636  0.8103706999999999  1.0000
  Se  Se2885    1.0  0.5657894735526315  0.8560606061363636  0.32365471999999995  1.0000
  Se  Se2886    1.0  0.5657894736842105  0.840909090909091  0.0  1.0000
  In  In1925    1.0  0.5526315788157894  0.8787878788636366  0.8103706999999999  1.0000
  In  In1926    1.0  0.5657894738157895  0.8712121211363637  0.1896293  1.0000
  Se  Se2887    1.0  0.5526315788157894  0.8787878788636366  0.32365471999999995  1.0000
  Se  Se2888    1.0  0.5657894738157895  0.8712121211363637  0.6763452799999999  1.0000
  Se  Se2889    1.0  0.5526315789473684  0.8636363636363638  0.0  1.0000
  In  In1927    1.0  0.5526315790789473  0.8939393938636365  0.1896293  1.0000
  Se  Se2890    1.0  0.5526315790789473  0.8939393938636365  0.6763452799999999  1.0000
  In  In1928    1.0  0.5657894735526315  0.9015151515909092  0.8103706999999999  1.0000
  Se  Se2891    1.0  0.5657894735526315  0.9015151515909092  0.32365471999999995  1.0000
  Se  Se2892    1.0  0.5657894736842105  0.8863636363636366  0.0  1.0000
  In  In1929    1.0  0.5526315788157894  0.9242424243181819  0.8103706999999999  1.0000
  In  In1930    1.0  0.5657894738157895  0.9166666665909091  0.1896293  1.0000
  Se  Se2893    1.0  0.5526315788157894  0.9242424243181819  0.32365471999999995  1.0000
  Se  Se2894    1.0  0.5657894738157895  0.9166666665909091  0.6763452799999999  1.0000
  Se  Se2895    1.0  0.5526315789473684  0.9090909090909092  0.0  1.0000
  In  In1931    1.0  0.5526315790789473  0.9393939393181818  0.1896293  1.0000
  Se  Se2896    1.0  0.5526315790789473  0.9393939393181818  0.6763452799999999  1.0000
  In  In1932    1.0  0.5657894735526315  0.9469696970454545  0.8103706999999999  1.0000
  Se  Se2897    1.0  0.5657894735526315  0.9469696970454545  0.32365471999999995  1.0000
  Se  Se2898    1.0  0.5657894736842105  0.9318181818181819  0.0  1.0000
  In  In1933    1.0  0.5526315788157894  0.9696969697727275  0.8103706999999999  1.0000
  In  In1934    1.0  0.5657894738157895  0.9621212120454546  0.1896293  1.0000
  Se  Se2899    1.0  0.5526315788157894  0.9696969697727275  0.32365471999999995  1.0000
  Se  Se2900    1.0  0.5657894738157895  0.9621212120454546  0.6763452799999999  1.0000
  Se  Se2901    1.0  0.5526315789473684  0.9545454545454547  0.0  1.0000
  In  In1935    1.0  0.5526315790789473  0.9848484847727275  0.1896293  1.0000
  Se  Se2902    1.0  0.5526315790789473  0.9848484847727275  0.6763452799999999  1.0000
  In  In1936    1.0  0.5657894735526315  0.9924242425  0.8103706999999999  1.0000
  Se  Se2903    1.0  0.5657894735526315  0.9924242425  0.32365471999999995  1.0000
  Se  Se2904    1.0  0.5657894736842105  0.9772727272727274  0.0  1.0000
  In  In1937    1.0  0.5789473682894736  0.01515151522727273  0.8103706999999999  1.0000
  In  In1938    1.0  0.5921052632894737  0.0075757575  0.1896293  1.0000
  Se  Se2905    1.0  0.5789473682894736  0.01515151522727273  0.32365471999999995  1.0000
  Se  Se2906    1.0  0.5921052632894737  0.0075757575  0.6763452799999999  1.0000
  Se  Se2907    1.0  0.5789473684210525  0.0  0.0  1.0000
  In  In1939    1.0  0.5789473685526315  0.030303030227272734  0.1896293  1.0000
  Se  Se2908    1.0  0.5789473685526315  0.030303030227272734  0.6763452799999999  1.0000
  In  In1940    1.0  0.5921052630263157  0.03787878795454546  0.8103706999999999  1.0000
  Se  Se2909    1.0  0.5921052630263157  0.03787878795454546  0.32365471999999995  1.0000
  Se  Se2910    1.0  0.5921052631578947  0.022727272727272728  0.0  1.0000
  In  In1941    1.0  0.5789473682894736  0.06060606068181818  0.8103706999999999  1.0000
  In  In1942    1.0  0.5921052632894737  0.05303030295454546  0.1896293  1.0000
  Se  Se2911    1.0  0.5789473682894736  0.06060606068181818  0.32365471999999995  1.0000
  Se  Se2912    1.0  0.5921052632894737  0.05303030295454546  0.6763452799999999  1.0000
  Se  Se2913    1.0  0.5789473684210525  0.045454545454545456  0.0  1.0000
  In  In1943    1.0  0.5789473685526315  0.07575757568181819  0.1896293  1.0000
  Se  Se2914    1.0  0.5789473685526315  0.07575757568181819  0.6763452799999999  1.0000
  In  In1944    1.0  0.5921052630263157  0.08333333340909092  0.8103706999999999  1.0000
  Se  Se2915    1.0  0.5921052630263157  0.08333333340909092  0.32365471999999995  1.0000
  Se  Se2916    1.0  0.5921052631578947  0.06818181818181819  0.0  1.0000
  In  In1945    1.0  0.5789473682894736  0.10606060613636366  0.8103706999999999  1.0000
  In  In1946    1.0  0.5921052632894737  0.09848484840909091  0.1896293  1.0000
  Se  Se2917    1.0  0.5789473682894736  0.10606060613636366  0.32365471999999995  1.0000
  Se  Se2918    1.0  0.5921052632894737  0.09848484840909091  0.6763452799999999  1.0000
  Se  Se2919    1.0  0.5789473684210525  0.09090909090909091  0.0  1.0000
  In  In1947    1.0  0.5789473685526315  0.12121212113636365  0.1896293  1.0000
  Se  Se2920    1.0  0.5789473685526315  0.12121212113636365  0.6763452799999999  1.0000
  In  In1948    1.0  0.5921052630263157  0.12878787886363638  0.8103706999999999  1.0000
  Se  Se2921    1.0  0.5921052630263157  0.12878787886363638  0.32365471999999995  1.0000
  Se  Se2922    1.0  0.5921052631578947  0.11363636363636365  0.0  1.0000
  In  In1949    1.0  0.5789473682894736  0.15151515159090911  0.8103706999999999  1.0000
  In  In1950    1.0  0.5921052632894737  0.1439393938636364  0.1896293  1.0000
  Se  Se2923    1.0  0.5789473682894736  0.15151515159090911  0.32365471999999995  1.0000
  Se  Se2924    1.0  0.5921052632894737  0.1439393938636364  0.6763452799999999  1.0000
  Se  Se2925    1.0  0.5789473684210525  0.13636363636363638  0.0  1.0000
  In  In1951    1.0  0.5789473685526315  0.16666666659090912  0.1896293  1.0000
  Se  Se2926    1.0  0.5789473685526315  0.16666666659090912  0.6763452799999999  1.0000
  In  In1952    1.0  0.5921052630263157  0.17424242431818185  0.8103706999999999  1.0000
  Se  Se2927    1.0  0.5921052630263157  0.17424242431818185  0.32365471999999995  1.0000
  Se  Se2928    1.0  0.5921052631578947  0.15909090909090912  0.0  1.0000
  In  In1953    1.0  0.5789473682894736  0.19696969704545458  0.8103706999999999  1.0000
  In  In1954    1.0  0.5921052632894737  0.18939393931818185  0.1896293  1.0000
  Se  Se2929    1.0  0.5789473682894736  0.19696969704545458  0.32365471999999995  1.0000
  Se  Se2930    1.0  0.5921052632894737  0.18939393931818185  0.6763452799999999  1.0000
  Se  Se2931    1.0  0.5789473684210525  0.18181818181818182  0.0  1.0000
  In  In1955    1.0  0.5789473685526315  0.21212121204545456  0.1896293  1.0000
  Se  Se2932    1.0  0.5789473685526315  0.21212121204545456  0.6763452799999999  1.0000
  In  In1956    1.0  0.5921052630263157  0.21969696977272726  0.8103706999999999  1.0000
  Se  Se2933    1.0  0.5921052630263157  0.21969696977272726  0.32365471999999995  1.0000
  Se  Se2934    1.0  0.5921052631578947  0.20454545454545456  0.0  1.0000
  In  In1957    1.0  0.5789473682894736  0.2424242425  0.8103706999999999  1.0000
  In  In1958    1.0  0.5921052632894737  0.2348484847727273  0.1896293  1.0000
  Se  Se2935    1.0  0.5789473682894736  0.2424242425  0.32365471999999995  1.0000
  Se  Se2936    1.0  0.5921052632894737  0.2348484847727273  0.6763452799999999  1.0000
  Se  Se2937    1.0  0.5789473684210525  0.2272727272727273  0.0  1.0000
  In  In1959    1.0  0.5789473685526315  0.2575757575  0.1896293  1.0000
  Se  Se2938    1.0  0.5789473685526315  0.2575757575  0.6763452799999999  1.0000
  In  In1960    1.0  0.5921052630263157  0.2651515152272727  0.8103706999999999  1.0000
  Se  Se2939    1.0  0.5921052630263157  0.2651515152272727  0.32365471999999995  1.0000
  Se  Se2940    1.0  0.5921052631578947  0.25  0.0  1.0000
  In  In1961    1.0  0.5789473682894736  0.28787878795454547  0.8103706999999999  1.0000
  In  In1962    1.0  0.5921052632894737  0.28030303022727276  0.1896293  1.0000
  Se  Se2941    1.0  0.5789473682894736  0.28787878795454547  0.32365471999999995  1.0000
  Se  Se2942    1.0  0.5921052632894737  0.28030303022727276  0.6763452799999999  1.0000
  Se  Se2943    1.0  0.5789473684210525  0.27272727272727276  0.0  1.0000
  In  In1963    1.0  0.5789473685526315  0.3030303029545455  0.1896293  1.0000
  Se  Se2944    1.0  0.5789473685526315  0.3030303029545455  0.6763452799999999  1.0000
  In  In1964    1.0  0.5921052630263157  0.3106060606818183  0.8103706999999999  1.0000
  Se  Se2945    1.0  0.5921052630263157  0.3106060606818183  0.32365471999999995  1.0000
  Se  Se2946    1.0  0.5921052631578947  0.2954545454545455  0.0  1.0000
  In  In1965    1.0  0.5789473682894736  0.33333333340909094  0.8103706999999999  1.0000
  In  In1966    1.0  0.5921052632894737  0.32575757568181823  0.1896293  1.0000
  Se  Se2947    1.0  0.5789473682894736  0.33333333340909094  0.32365471999999995  1.0000
  Se  Se2948    1.0  0.5921052632894737  0.32575757568181823  0.6763452799999999  1.0000
  Se  Se2949    1.0  0.5789473684210525  0.31818181818181823  0.0  1.0000
  In  In1967    1.0  0.5789473685526315  0.34848484840909094  0.1896293  1.0000
  Se  Se2950    1.0  0.5789473685526315  0.34848484840909094  0.6763452799999999  1.0000
  In  In1968    1.0  0.5921052630263157  0.3560606061363637  0.8103706999999999  1.0000
  Se  Se2951    1.0  0.5921052630263157  0.3560606061363637  0.32365471999999995  1.0000
  Se  Se2952    1.0  0.5921052631578947  0.34090909090909094  0.0  1.0000
  In  In1969    1.0  0.5789473682894736  0.3787878788636364  0.8103706999999999  1.0000
  In  In1970    1.0  0.5921052632894737  0.3712121211363637  0.1896293  1.0000
  Se  Se2953    1.0  0.5789473682894736  0.3787878788636364  0.32365471999999995  1.0000
  Se  Se2954    1.0  0.5921052632894737  0.3712121211363637  0.6763452799999999  1.0000
  Se  Se2955    1.0  0.5789473684210525  0.36363636363636365  0.0  1.0000
  In  In1971    1.0  0.5789473685526315  0.3939393938636364  0.1896293  1.0000
  Se  Se2956    1.0  0.5789473685526315  0.3939393938636364  0.6763452799999999  1.0000
  In  In1972    1.0  0.5921052630263157  0.40151515159090917  0.8103706999999999  1.0000
  Se  Se2957    1.0  0.5921052630263157  0.40151515159090917  0.32365471999999995  1.0000
  Se  Se2958    1.0  0.5921052631578947  0.3863636363636364  0.0  1.0000
  In  In1973    1.0  0.5789473682894736  0.4242424243181818  0.8103706999999999  1.0000
  In  In1974    1.0  0.5921052632894737  0.4166666665909091  0.1896293  1.0000
  Se  Se2959    1.0  0.5789473682894736  0.4242424243181818  0.32365471999999995  1.0000
  Se  Se2960    1.0  0.5921052632894737  0.4166666665909091  0.6763452799999999  1.0000
  Se  Se2961    1.0  0.5789473684210525  0.4090909090909091  0.0  1.0000
  In  In1975    1.0  0.5789473685526315  0.4393939393181818  0.1896293  1.0000
  Se  Se2962    1.0  0.5789473685526315  0.4393939393181818  0.6763452799999999  1.0000
  In  In1976    1.0  0.5921052630263157  0.4469696970454546  0.8103706999999999  1.0000
  Se  Se2963    1.0  0.5921052630263157  0.4469696970454546  0.32365471999999995  1.0000
  Se  Se2964    1.0  0.5921052631578947  0.4318181818181819  0.0  1.0000
  In  In1977    1.0  0.5789473682894736  0.4696969697727273  0.8103706999999999  1.0000
  In  In1978    1.0  0.5921052632894737  0.46212121204545453  0.1896293  1.0000
  Se  Se2965    1.0  0.5789473682894736  0.4696969697727273  0.32365471999999995  1.0000
  Se  Se2966    1.0  0.5921052632894737  0.46212121204545453  0.6763452799999999  1.0000
  Se  Se2967    1.0  0.5789473684210525  0.4545454545454546  0.0  1.0000
  In  In1979    1.0  0.5789473685526315  0.4848484847727273  0.1896293  1.0000
  Se  Se2968    1.0  0.5789473685526315  0.4848484847727273  0.6763452799999999  1.0000
  In  In1980    1.0  0.5921052630263157  0.49242424250000005  0.8103706999999999  1.0000
  Se  Se2969    1.0  0.5921052630263157  0.49242424250000005  0.32365471999999995  1.0000
  Se  Se2970    1.0  0.5921052631578947  0.47727272727272735  0.0  1.0000
  In  In1981    1.0  0.5789473682894736  0.5151515152272728  0.8103706999999999  1.0000
  In  In1982    1.0  0.5921052632894737  0.5075757575  0.1896293  1.0000
  Se  Se2971    1.0  0.5789473682894736  0.5151515152272728  0.32365471999999995  1.0000
  Se  Se2972    1.0  0.5921052632894737  0.5075757575  0.6763452799999999  1.0000
  Se  Se2973    1.0  0.5789473684210525  0.5  0.0  1.0000
  In  In1983    1.0  0.5789473685526315  0.5303030302272728  0.1896293  1.0000
  Se  Se2974    1.0  0.5789473685526315  0.5303030302272728  0.6763452799999999  1.0000
  In  In1984    1.0  0.5921052630263157  0.5378787879545455  0.8103706999999999  1.0000
  Se  Se2975    1.0  0.5921052630263157  0.5378787879545455  0.32365471999999995  1.0000
  Se  Se2976    1.0  0.5921052631578947  0.5227272727272728  0.0  1.0000
  In  In1985    1.0  0.5789473682894736  0.5606060606818183  0.8103706999999999  1.0000
  In  In1986    1.0  0.5921052632894737  0.5530303029545455  0.1896293  1.0000
  Se  Se2977    1.0  0.5789473682894736  0.5606060606818183  0.32365471999999995  1.0000
  Se  Se2978    1.0  0.5921052632894737  0.5530303029545455  0.6763452799999999  1.0000
  Se  Se2979    1.0  0.5789473684210525  0.5454545454545455  0.0  1.0000
  In  In1987    1.0  0.5789473685526315  0.5757575756818183  0.1896293  1.0000
  Se  Se2980    1.0  0.5789473685526315  0.5757575756818183  0.6763452799999999  1.0000
  In  In1988    1.0  0.5921052630263157  0.583333333409091  0.8103706999999999  1.0000
  Se  Se2981    1.0  0.5921052630263157  0.583333333409091  0.32365471999999995  1.0000
  Se  Se2982    1.0  0.5921052631578947  0.5681818181818183  0.0  1.0000
  In  In1989    1.0  0.5789473682894736  0.6060606061363637  0.8103706999999999  1.0000
  In  In1990    1.0  0.5921052632894737  0.598484848409091  0.1896293  1.0000
  Se  Se2983    1.0  0.5789473682894736  0.6060606061363637  0.32365471999999995  1.0000
  Se  Se2984    1.0  0.5921052632894737  0.598484848409091  0.6763452799999999  1.0000
  Se  Se2985    1.0  0.5789473684210525  0.590909090909091  0.0  1.0000
  In  In1991    1.0  0.5789473685526315  0.6212121211363637  0.1896293  1.0000
  Se  Se2986    1.0  0.5789473685526315  0.6212121211363637  0.6763452799999999  1.0000
  In  In1992    1.0  0.5921052630263157  0.6287878788636365  0.8103706999999999  1.0000
  Se  Se2987    1.0  0.5921052630263157  0.6287878788636365  0.32365471999999995  1.0000
  Se  Se2988    1.0  0.5921052631578947  0.6136363636363638  0.0  1.0000
  In  In1993    1.0  0.5789473682894736  0.6515151515909091  0.8103706999999999  1.0000
  In  In1994    1.0  0.5921052632894737  0.6439393938636364  0.1896293  1.0000
  Se  Se2989    1.0  0.5789473682894736  0.6515151515909091  0.32365471999999995  1.0000
  Se  Se2990    1.0  0.5921052632894737  0.6439393938636364  0.6763452799999999  1.0000
  Se  Se2991    1.0  0.5789473684210525  0.6363636363636365  0.0  1.0000
  In  In1995    1.0  0.5789473685526315  0.6666666665909092  0.1896293  1.0000
  Se  Se2992    1.0  0.5789473685526315  0.6666666665909092  0.6763452799999999  1.0000
  In  In1996    1.0  0.5921052630263157  0.6742424243181819  0.8103706999999999  1.0000
  Se  Se2993    1.0  0.5921052630263157  0.6742424243181819  0.32365471999999995  1.0000
  Se  Se2994    1.0  0.5921052631578947  0.6590909090909092  0.0  1.0000
  In  In1997    1.0  0.5789473682894736  0.6969696970454546  0.8103706999999999  1.0000
  In  In1998    1.0  0.5921052632894737  0.6893939393181818  0.1896293  1.0000
  Se  Se2995    1.0  0.5789473682894736  0.6969696970454546  0.32365471999999995  1.0000
  Se  Se2996    1.0  0.5921052632894737  0.6893939393181818  0.6763452799999999  1.0000
  Se  Se2997    1.0  0.5789473684210525  0.6818181818181819  0.0  1.0000
  In  In1999    1.0  0.5789473685526315  0.7121212120454546  0.1896293  1.0000
  Se  Se2998    1.0  0.5789473685526315  0.7121212120454546  0.6763452799999999  1.0000
  In  In2000    1.0  0.5921052630263157  0.7196969697727273  0.8103706999999999  1.0000
  Se  Se2999    1.0  0.5921052630263157  0.7196969697727273  0.32365471999999995  1.0000
  Se  Se3000    1.0  0.5921052631578947  0.7045454545454547  0.0  1.0000
  In  In2001    1.0  0.5789473682894736  0.7424242425  0.8103706999999999  1.0000
  In  In2002    1.0  0.5921052632894737  0.7348484847727274  0.1896293  1.0000
  Se  Se3001    1.0  0.5789473682894736  0.7424242425  0.32365471999999995  1.0000
  Se  Se3002    1.0  0.5921052632894737  0.7348484847727274  0.6763452799999999  1.0000
  Se  Se3003    1.0  0.5789473684210525  0.7272727272727273  0.0  1.0000
  In  In2003    1.0  0.5789473685526315  0.7575757575000001  0.1896293  1.0000
  Se  Se3004    1.0  0.5789473685526315  0.7575757575000001  0.6763452799999999  1.0000
  In  In2004    1.0  0.5921052630263157  0.7651515152272729  0.8103706999999999  1.0000
  Se  Se3005    1.0  0.5921052630263157  0.7651515152272729  0.32365471999999995  1.0000
  Se  Se3006    1.0  0.5921052631578947  0.7500000000000001  0.0  1.0000
  In  In2005    1.0  0.5789473682894736  0.7878787879545455  0.8103706999999999  1.0000
  In  In2006    1.0  0.5921052632894737  0.7803030302272728  0.1896293  1.0000
  Se  Se3007    1.0  0.5789473682894736  0.7878787879545455  0.32365471999999995  1.0000
  Se  Se3008    1.0  0.5921052632894737  0.7803030302272728  0.6763452799999999  1.0000
  Se  Se3009    1.0  0.5789473684210525  0.7727272727272728  0.0  1.0000
  In  In2007    1.0  0.5789473685526315  0.8030303029545455  0.1896293  1.0000
  Se  Se3010    1.0  0.5789473685526315  0.8030303029545455  0.6763452799999999  1.0000
  In  In2008    1.0  0.5921052630263157  0.8106060606818183  0.8103706999999999  1.0000
  Se  Se3011    1.0  0.5921052630263157  0.8106060606818183  0.32365471999999995  1.0000
  Se  Se3012    1.0  0.5921052631578947  0.7954545454545455  0.0  1.0000
  In  In2009    1.0  0.5789473682894736  0.833333333409091  0.8103706999999999  1.0000
  In  In2010    1.0  0.5921052632894737  0.8257575756818182  0.1896293  1.0000
  Se  Se3013    1.0  0.5789473682894736  0.833333333409091  0.32365471999999995  1.0000
  Se  Se3014    1.0  0.5921052632894737  0.8257575756818182  0.6763452799999999  1.0000
  Se  Se3015    1.0  0.5789473684210525  0.8181818181818182  0.0  1.0000
  In  In2011    1.0  0.5789473685526315  0.848484848409091  0.1896293  1.0000
  Se  Se3016    1.0  0.5789473685526315  0.848484848409091  0.6763452799999999  1.0000
  In  In2012    1.0  0.5921052630263157  0.8560606061363636  0.8103706999999999  1.0000
  Se  Se3017    1.0  0.5921052630263157  0.8560606061363636  0.32365471999999995  1.0000
  Se  Se3018    1.0  0.5921052631578947  0.840909090909091  0.0  1.0000
  In  In2013    1.0  0.5789473682894736  0.8787878788636366  0.8103706999999999  1.0000
  In  In2014    1.0  0.5921052632894737  0.8712121211363637  0.1896293  1.0000
  Se  Se3019    1.0  0.5789473682894736  0.8787878788636366  0.32365471999999995  1.0000
  Se  Se3020    1.0  0.5921052632894737  0.8712121211363637  0.6763452799999999  1.0000
  Se  Se3021    1.0  0.5789473684210525  0.8636363636363638  0.0  1.0000
  In  In2015    1.0  0.5789473685526315  0.8939393938636365  0.1896293  1.0000
  Se  Se3022    1.0  0.5789473685526315  0.8939393938636365  0.6763452799999999  1.0000
  In  In2016    1.0  0.5921052630263157  0.9015151515909092  0.8103706999999999  1.0000
  Se  Se3023    1.0  0.5921052630263157  0.9015151515909092  0.32365471999999995  1.0000
  Se  Se3024    1.0  0.5921052631578947  0.8863636363636366  0.0  1.0000
  In  In2017    1.0  0.5789473682894736  0.9242424243181819  0.8103706999999999  1.0000
  In  In2018    1.0  0.5921052632894737  0.9166666665909091  0.1896293  1.0000
  Se  Se3025    1.0  0.5789473682894736  0.9242424243181819  0.32365471999999995  1.0000
  Se  Se3026    1.0  0.5921052632894737  0.9166666665909091  0.6763452799999999  1.0000
  Se  Se3027    1.0  0.5789473684210525  0.9090909090909092  0.0  1.0000
  In  In2019    1.0  0.5789473685526315  0.9393939393181818  0.1896293  1.0000
  Se  Se3028    1.0  0.5789473685526315  0.9393939393181818  0.6763452799999999  1.0000
  In  In2020    1.0  0.5921052630263157  0.9469696970454545  0.8103706999999999  1.0000
  Se  Se3029    1.0  0.5921052630263157  0.9469696970454545  0.32365471999999995  1.0000
  Se  Se3030    1.0  0.5921052631578947  0.9318181818181819  0.0  1.0000
  In  In2021    1.0  0.5789473682894736  0.9696969697727275  0.8103706999999999  1.0000
  In  In2022    1.0  0.5921052632894737  0.9621212120454546  0.1896293  1.0000
  Se  Se3031    1.0  0.5789473682894736  0.9696969697727275  0.32365471999999995  1.0000
  Se  Se3032    1.0  0.5921052632894737  0.9621212120454546  0.6763452799999999  1.0000
  Se  Se3033    1.0  0.5789473684210525  0.9545454545454547  0.0  1.0000
  In  In2023    1.0  0.5789473685526315  0.9848484847727275  0.1896293  1.0000
  Se  Se3034    1.0  0.5789473685526315  0.9848484847727275  0.6763452799999999  1.0000
  In  In2024    1.0  0.5921052630263157  0.9924242425  0.8103706999999999  1.0000
  Se  Se3035    1.0  0.5921052630263157  0.9924242425  0.32365471999999995  1.0000
  Se  Se3036    1.0  0.5921052631578947  0.9772727272727274  0.0  1.0000
  In  In2025    1.0  0.6052631577631578  0.01515151522727273  0.8103706999999999  1.0000
  In  In2026    1.0  0.6184210527631578  0.0075757575  0.1896293  1.0000
  Se  Se3037    1.0  0.6052631577631578  0.01515151522727273  0.32365471999999995  1.0000
  Se  Se3038    1.0  0.6184210527631578  0.0075757575  0.6763452799999999  1.0000
  Se  Se3039    1.0  0.6052631578947367  0.0  0.0  1.0000
  In  In2027    1.0  0.6052631580263158  0.030303030227272734  0.1896293  1.0000
  Se  Se3040    1.0  0.6052631580263158  0.030303030227272734  0.6763452799999999  1.0000
  In  In2028    1.0  0.6184210525  0.03787878795454546  0.8103706999999999  1.0000
  Se  Se3041    1.0  0.6184210525  0.03787878795454546  0.32365471999999995  1.0000
  Se  Se3042    1.0  0.6184210526315789  0.022727272727272728  0.0  1.0000
  In  In2029    1.0  0.6052631577631578  0.06060606068181818  0.8103706999999999  1.0000
  In  In2030    1.0  0.6184210527631578  0.05303030295454546  0.1896293  1.0000
  Se  Se3043    1.0  0.6052631577631578  0.06060606068181818  0.32365471999999995  1.0000
  Se  Se3044    1.0  0.6184210527631578  0.05303030295454546  0.6763452799999999  1.0000
  Se  Se3045    1.0  0.6052631578947367  0.045454545454545456  0.0  1.0000
  In  In2031    1.0  0.6052631580263158  0.07575757568181819  0.1896293  1.0000
  Se  Se3046    1.0  0.6052631580263158  0.07575757568181819  0.6763452799999999  1.0000
  In  In2032    1.0  0.6184210525  0.08333333340909092  0.8103706999999999  1.0000
  Se  Se3047    1.0  0.6184210525  0.08333333340909092  0.32365471999999995  1.0000
  Se  Se3048    1.0  0.6184210526315789  0.06818181818181819  0.0  1.0000
  In  In2033    1.0  0.6052631577631578  0.10606060613636366  0.8103706999999999  1.0000
  In  In2034    1.0  0.6184210527631578  0.09848484840909091  0.1896293  1.0000
  Se  Se3049    1.0  0.6052631577631578  0.10606060613636366  0.32365471999999995  1.0000
  Se  Se3050    1.0  0.6184210527631578  0.09848484840909091  0.6763452799999999  1.0000
  Se  Se3051    1.0  0.6052631578947367  0.09090909090909091  0.0  1.0000
  In  In2035    1.0  0.6052631580263158  0.12121212113636365  0.1896293  1.0000
  Se  Se3052    1.0  0.6052631580263158  0.12121212113636365  0.6763452799999999  1.0000
  In  In2036    1.0  0.6184210525  0.12878787886363638  0.8103706999999999  1.0000
  Se  Se3053    1.0  0.6184210525  0.12878787886363638  0.32365471999999995  1.0000
  Se  Se3054    1.0  0.6184210526315789  0.11363636363636365  0.0  1.0000
  In  In2037    1.0  0.6052631577631578  0.15151515159090911  0.8103706999999999  1.0000
  In  In2038    1.0  0.6184210527631578  0.1439393938636364  0.1896293  1.0000
  Se  Se3055    1.0  0.6052631577631578  0.15151515159090911  0.32365471999999995  1.0000
  Se  Se3056    1.0  0.6184210527631578  0.1439393938636364  0.6763452799999999  1.0000
  Se  Se3057    1.0  0.6052631578947367  0.13636363636363638  0.0  1.0000
  In  In2039    1.0  0.6052631580263158  0.16666666659090912  0.1896293  1.0000
  Se  Se3058    1.0  0.6052631580263158  0.16666666659090912  0.6763452799999999  1.0000
  In  In2040    1.0  0.6184210525  0.17424242431818185  0.8103706999999999  1.0000
  Se  Se3059    1.0  0.6184210525  0.17424242431818185  0.32365471999999995  1.0000
  Se  Se3060    1.0  0.6184210526315789  0.15909090909090912  0.0  1.0000
  In  In2041    1.0  0.6052631577631578  0.19696969704545458  0.8103706999999999  1.0000
  In  In2042    1.0  0.6184210527631578  0.18939393931818185  0.1896293  1.0000
  Se  Se3061    1.0  0.6052631577631578  0.19696969704545458  0.32365471999999995  1.0000
  Se  Se3062    1.0  0.6184210527631578  0.18939393931818185  0.6763452799999999  1.0000
  Se  Se3063    1.0  0.6052631578947367  0.18181818181818182  0.0  1.0000
  In  In2043    1.0  0.6052631580263158  0.21212121204545456  0.1896293  1.0000
  Se  Se3064    1.0  0.6052631580263158  0.21212121204545456  0.6763452799999999  1.0000
  In  In2044    1.0  0.6184210525  0.21969696977272726  0.8103706999999999  1.0000
  Se  Se3065    1.0  0.6184210525  0.21969696977272726  0.32365471999999995  1.0000
  Se  Se3066    1.0  0.6184210526315789  0.20454545454545456  0.0  1.0000
  In  In2045    1.0  0.6052631577631578  0.2424242425  0.8103706999999999  1.0000
  In  In2046    1.0  0.6184210527631578  0.2348484847727273  0.1896293  1.0000
  Se  Se3067    1.0  0.6052631577631578  0.2424242425  0.32365471999999995  1.0000
  Se  Se3068    1.0  0.6184210527631578  0.2348484847727273  0.6763452799999999  1.0000
  Se  Se3069    1.0  0.6052631578947367  0.2272727272727273  0.0  1.0000
  In  In2047    1.0  0.6052631580263158  0.2575757575  0.1896293  1.0000
  Se  Se3070    1.0  0.6052631580263158  0.2575757575  0.6763452799999999  1.0000
  In  In2048    1.0  0.6184210525  0.2651515152272727  0.8103706999999999  1.0000
  Se  Se3071    1.0  0.6184210525  0.2651515152272727  0.32365471999999995  1.0000
  Se  Se3072    1.0  0.6184210526315789  0.25  0.0  1.0000
  In  In2049    1.0  0.6052631577631578  0.28787878795454547  0.8103706999999999  1.0000
  In  In2050    1.0  0.6184210527631578  0.28030303022727276  0.1896293  1.0000
  Se  Se3073    1.0  0.6052631577631578  0.28787878795454547  0.32365471999999995  1.0000
  Se  Se3074    1.0  0.6184210527631578  0.28030303022727276  0.6763452799999999  1.0000
  Se  Se3075    1.0  0.6052631578947367  0.27272727272727276  0.0  1.0000
  In  In2051    1.0  0.6052631580263158  0.3030303029545455  0.1896293  1.0000
  Se  Se3076    1.0  0.6052631580263158  0.3030303029545455  0.6763452799999999  1.0000
  In  In2052    1.0  0.6184210525  0.3106060606818183  0.8103706999999999  1.0000
  Se  Se3077    1.0  0.6184210525  0.3106060606818183  0.32365471999999995  1.0000
  Se  Se3078    1.0  0.6184210526315789  0.2954545454545455  0.0  1.0000
  In  In2053    1.0  0.6052631577631578  0.33333333340909094  0.8103706999999999  1.0000
  In  In2054    1.0  0.6184210527631578  0.32575757568181823  0.1896293  1.0000
  Se  Se3079    1.0  0.6052631577631578  0.33333333340909094  0.32365471999999995  1.0000
  Se  Se3080    1.0  0.6184210527631578  0.32575757568181823  0.6763452799999999  1.0000
  Se  Se3081    1.0  0.6052631578947367  0.31818181818181823  0.0  1.0000
  In  In2055    1.0  0.6052631580263158  0.34848484840909094  0.1896293  1.0000
  Se  Se3082    1.0  0.6052631580263158  0.34848484840909094  0.6763452799999999  1.0000
  In  In2056    1.0  0.6184210525  0.3560606061363637  0.8103706999999999  1.0000
  Se  Se3083    1.0  0.6184210525  0.3560606061363637  0.32365471999999995  1.0000
  Se  Se3084    1.0  0.6184210526315789  0.34090909090909094  0.0  1.0000
  In  In2057    1.0  0.6052631577631578  0.3787878788636364  0.8103706999999999  1.0000
  In  In2058    1.0  0.6184210527631578  0.3712121211363637  0.1896293  1.0000
  Se  Se3085    1.0  0.6052631577631578  0.3787878788636364  0.32365471999999995  1.0000
  Se  Se3086    1.0  0.6184210527631578  0.3712121211363637  0.6763452799999999  1.0000
  Se  Se3087    1.0  0.6052631578947367  0.36363636363636365  0.0  1.0000
  In  In2059    1.0  0.6052631580263158  0.3939393938636364  0.1896293  1.0000
  Se  Se3088    1.0  0.6052631580263158  0.3939393938636364  0.6763452799999999  1.0000
  In  In2060    1.0  0.6184210525  0.40151515159090917  0.8103706999999999  1.0000
  Se  Se3089    1.0  0.6184210525  0.40151515159090917  0.32365471999999995  1.0000
  Se  Se3090    1.0  0.6184210526315789  0.3863636363636364  0.0  1.0000
  In  In2061    1.0  0.6052631577631578  0.4242424243181818  0.8103706999999999  1.0000
  In  In2062    1.0  0.6184210527631578  0.4166666665909091  0.1896293  1.0000
  Se  Se3091    1.0  0.6052631577631578  0.4242424243181818  0.32365471999999995  1.0000
  Se  Se3092    1.0  0.6184210527631578  0.4166666665909091  0.6763452799999999  1.0000
  Se  Se3093    1.0  0.6052631578947367  0.4090909090909091  0.0  1.0000
  In  In2063    1.0  0.6052631580263158  0.4393939393181818  0.1896293  1.0000
  Se  Se3094    1.0  0.6052631580263158  0.4393939393181818  0.6763452799999999  1.0000
  In  In2064    1.0  0.6184210525  0.4469696970454546  0.8103706999999999  1.0000
  Se  Se3095    1.0  0.6184210525  0.4469696970454546  0.32365471999999995  1.0000
  Se  Se3096    1.0  0.6184210526315789  0.4318181818181819  0.0  1.0000
  In  In2065    1.0  0.6052631577631578  0.4696969697727273  0.8103706999999999  1.0000
  In  In2066    1.0  0.6184210527631578  0.46212121204545453  0.1896293  1.0000
  Se  Se3097    1.0  0.6052631577631578  0.4696969697727273  0.32365471999999995  1.0000
  Se  Se3098    1.0  0.6184210527631578  0.46212121204545453  0.6763452799999999  1.0000
  Se  Se3099    1.0  0.6052631578947367  0.4545454545454546  0.0  1.0000
  In  In2067    1.0  0.6052631580263158  0.4848484847727273  0.1896293  1.0000
  Se  Se3100    1.0  0.6052631580263158  0.4848484847727273  0.6763452799999999  1.0000
  In  In2068    1.0  0.6184210525  0.49242424250000005  0.8103706999999999  1.0000
  Se  Se3101    1.0  0.6184210525  0.49242424250000005  0.32365471999999995  1.0000
  Se  Se3102    1.0  0.6184210526315789  0.47727272727272735  0.0  1.0000
  In  In2069    1.0  0.6052631577631578  0.5151515152272728  0.8103706999999999  1.0000
  In  In2070    1.0  0.6184210527631578  0.5075757575  0.1896293  1.0000
  Se  Se3103    1.0  0.6052631577631578  0.5151515152272728  0.32365471999999995  1.0000
  Se  Se3104    1.0  0.6184210527631578  0.5075757575  0.6763452799999999  1.0000
  Se  Se3105    1.0  0.6052631578947367  0.5  0.0  1.0000
  In  In2071    1.0  0.6052631580263158  0.5303030302272728  0.1896293  1.0000
  Se  Se3106    1.0  0.6052631580263158  0.5303030302272728  0.6763452799999999  1.0000
  In  In2072    1.0  0.6184210525  0.5378787879545455  0.8103706999999999  1.0000
  Se  Se3107    1.0  0.6184210525  0.5378787879545455  0.32365471999999995  1.0000
  Se  Se3108    1.0  0.6184210526315789  0.5227272727272728  0.0  1.0000
  In  In2073    1.0  0.6052631577631578  0.5606060606818183  0.8103706999999999  1.0000
  In  In2074    1.0  0.6184210527631578  0.5530303029545455  0.1896293  1.0000
  Se  Se3109    1.0  0.6052631577631578  0.5606060606818183  0.32365471999999995  1.0000
  Se  Se3110    1.0  0.6184210527631578  0.5530303029545455  0.6763452799999999  1.0000
  Se  Se3111    1.0  0.6052631578947367  0.5454545454545455  0.0  1.0000
  In  In2075    1.0  0.6052631580263158  0.5757575756818183  0.1896293  1.0000
  Se  Se3112    1.0  0.6052631580263158  0.5757575756818183  0.6763452799999999  1.0000
  In  In2076    1.0  0.6184210525  0.583333333409091  0.8103706999999999  1.0000
  Se  Se3113    1.0  0.6184210525  0.583333333409091  0.32365471999999995  1.0000
  Se  Se3114    1.0  0.6184210526315789  0.5681818181818183  0.0  1.0000
  In  In2077    1.0  0.6052631577631578  0.6060606061363637  0.8103706999999999  1.0000
  In  In2078    1.0  0.6184210527631578  0.598484848409091  0.1896293  1.0000
  Se  Se3115    1.0  0.6052631577631578  0.6060606061363637  0.32365471999999995  1.0000
  Se  Se3116    1.0  0.6184210527631578  0.598484848409091  0.6763452799999999  1.0000
  Se  Se3117    1.0  0.6052631578947367  0.590909090909091  0.0  1.0000
  In  In2079    1.0  0.6052631580263158  0.6212121211363637  0.1896293  1.0000
  Se  Se3118    1.0  0.6052631580263158  0.6212121211363637  0.6763452799999999  1.0000
  In  In2080    1.0  0.6184210525  0.6287878788636365  0.8103706999999999  1.0000
  Se  Se3119    1.0  0.6184210525  0.6287878788636365  0.32365471999999995  1.0000
  Se  Se3120    1.0  0.6184210526315789  0.6136363636363638  0.0  1.0000
  In  In2081    1.0  0.6052631577631578  0.6515151515909091  0.8103706999999999  1.0000
  In  In2082    1.0  0.6184210527631578  0.6439393938636364  0.1896293  1.0000
  Se  Se3121    1.0  0.6052631577631578  0.6515151515909091  0.32365471999999995  1.0000
  Se  Se3122    1.0  0.6184210527631578  0.6439393938636364  0.6763452799999999  1.0000
  Se  Se3123    1.0  0.6052631578947367  0.6363636363636365  0.0  1.0000
  In  In2083    1.0  0.6052631580263158  0.6666666665909092  0.1896293  1.0000
  Se  Se3124    1.0  0.6052631580263158  0.6666666665909092  0.6763452799999999  1.0000
  In  In2084    1.0  0.6184210525  0.6742424243181819  0.8103706999999999  1.0000
  Se  Se3125    1.0  0.6184210525  0.6742424243181819  0.32365471999999995  1.0000
  Se  Se3126    1.0  0.6184210526315789  0.6590909090909092  0.0  1.0000
  In  In2085    1.0  0.6052631577631578  0.6969696970454546  0.8103706999999999  1.0000
  In  In2086    1.0  0.6184210527631578  0.6893939393181818  0.1896293  1.0000
  Se  Se3127    1.0  0.6052631577631578  0.6969696970454546  0.32365471999999995  1.0000
  Se  Se3128    1.0  0.6184210527631578  0.6893939393181818  0.6763452799999999  1.0000
  Se  Se3129    1.0  0.6052631578947367  0.6818181818181819  0.0  1.0000
  In  In2087    1.0  0.6052631580263158  0.7121212120454546  0.1896293  1.0000
  Se  Se3130    1.0  0.6052631580263158  0.7121212120454546  0.6763452799999999  1.0000
  In  In2088    1.0  0.6184210525  0.7196969697727273  0.8103706999999999  1.0000
  Se  Se3131    1.0  0.6184210525  0.7196969697727273  0.32365471999999995  1.0000
  Se  Se3132    1.0  0.6184210526315789  0.7045454545454547  0.0  1.0000
  In  In2089    1.0  0.6052631577631578  0.7424242425  0.8103706999999999  1.0000
  In  In2090    1.0  0.6184210527631578  0.7348484847727274  0.1896293  1.0000
  Se  Se3133    1.0  0.6052631577631578  0.7424242425  0.32365471999999995  1.0000
  Se  Se3134    1.0  0.6184210527631578  0.7348484847727274  0.6763452799999999  1.0000
  Se  Se3135    1.0  0.6052631578947367  0.7272727272727273  0.0  1.0000
  In  In2091    1.0  0.6052631580263158  0.7575757575000001  0.1896293  1.0000
  Se  Se3136    1.0  0.6052631580263158  0.7575757575000001  0.6763452799999999  1.0000
  In  In2092    1.0  0.6184210525  0.7651515152272729  0.8103706999999999  1.0000
  Se  Se3137    1.0  0.6184210525  0.7651515152272729  0.32365471999999995  1.0000
  Se  Se3138    1.0  0.6184210526315789  0.7500000000000001  0.0  1.0000
  In  In2093    1.0  0.6052631577631578  0.7878787879545455  0.8103706999999999  1.0000
  In  In2094    1.0  0.6184210527631578  0.7803030302272728  0.1896293  1.0000
  Se  Se3139    1.0  0.6052631577631578  0.7878787879545455  0.32365471999999995  1.0000
  Se  Se3140    1.0  0.6184210527631578  0.7803030302272728  0.6763452799999999  1.0000
  Se  Se3141    1.0  0.6052631578947367  0.7727272727272728  0.0  1.0000
  In  In2095    1.0  0.6052631580263158  0.8030303029545455  0.1896293  1.0000
  Se  Se3142    1.0  0.6052631580263158  0.8030303029545455  0.6763452799999999  1.0000
  In  In2096    1.0  0.6184210525  0.8106060606818183  0.8103706999999999  1.0000
  Se  Se3143    1.0  0.6184210525  0.8106060606818183  0.32365471999999995  1.0000
  Se  Se3144    1.0  0.6184210526315789  0.7954545454545455  0.0  1.0000
  In  In2097    1.0  0.6052631577631578  0.833333333409091  0.8103706999999999  1.0000
  In  In2098    1.0  0.6184210527631578  0.8257575756818182  0.1896293  1.0000
  Se  Se3145    1.0  0.6052631577631578  0.833333333409091  0.32365471999999995  1.0000
  Se  Se3146    1.0  0.6184210527631578  0.8257575756818182  0.6763452799999999  1.0000
  Se  Se3147    1.0  0.6052631578947367  0.8181818181818182  0.0  1.0000
  In  In2099    1.0  0.6052631580263158  0.848484848409091  0.1896293  1.0000
  Se  Se3148    1.0  0.6052631580263158  0.848484848409091  0.6763452799999999  1.0000
  In  In2100    1.0  0.6184210525  0.8560606061363636  0.8103706999999999  1.0000
  Se  Se3149    1.0  0.6184210525  0.8560606061363636  0.32365471999999995  1.0000
  Se  Se3150    1.0  0.6184210526315789  0.840909090909091  0.0  1.0000
  In  In2101    1.0  0.6052631577631578  0.8787878788636366  0.8103706999999999  1.0000
  In  In2102    1.0  0.6184210527631578  0.8712121211363637  0.1896293  1.0000
  Se  Se3151    1.0  0.6052631577631578  0.8787878788636366  0.32365471999999995  1.0000
  Se  Se3152    1.0  0.6184210527631578  0.8712121211363637  0.6763452799999999  1.0000
  Se  Se3153    1.0  0.6052631578947367  0.8636363636363638  0.0  1.0000
  In  In2103    1.0  0.6052631580263158  0.8939393938636365  0.1896293  1.0000
  Se  Se3154    1.0  0.6052631580263158  0.8939393938636365  0.6763452799999999  1.0000
  In  In2104    1.0  0.6184210525  0.9015151515909092  0.8103706999999999  1.0000
  Se  Se3155    1.0  0.6184210525  0.9015151515909092  0.32365471999999995  1.0000
  Se  Se3156    1.0  0.6184210526315789  0.8863636363636366  0.0  1.0000
  In  In2105    1.0  0.6052631577631578  0.9242424243181819  0.8103706999999999  1.0000
  In  In2106    1.0  0.6184210527631578  0.9166666665909091  0.1896293  1.0000
  Se  Se3157    1.0  0.6052631577631578  0.9242424243181819  0.32365471999999995  1.0000
  Se  Se3158    1.0  0.6184210527631578  0.9166666665909091  0.6763452799999999  1.0000
  Se  Se3159    1.0  0.6052631578947367  0.9090909090909092  0.0  1.0000
  In  In2107    1.0  0.6052631580263158  0.9393939393181818  0.1896293  1.0000
  Se  Se3160    1.0  0.6052631580263158  0.9393939393181818  0.6763452799999999  1.0000
  In  In2108    1.0  0.6184210525  0.9469696970454545  0.8103706999999999  1.0000
  Se  Se3161    1.0  0.6184210525  0.9469696970454545  0.32365471999999995  1.0000
  Se  Se3162    1.0  0.6184210526315789  0.9318181818181819  0.0  1.0000
  In  In2109    1.0  0.6052631577631578  0.9696969697727275  0.8103706999999999  1.0000
  In  In2110    1.0  0.6184210527631578  0.9621212120454546  0.1896293  1.0000
  Se  Se3163    1.0  0.6052631577631578  0.9696969697727275  0.32365471999999995  1.0000
  Se  Se3164    1.0  0.6184210527631578  0.9621212120454546  0.6763452799999999  1.0000
  Se  Se3165    1.0  0.6052631578947367  0.9545454545454547  0.0  1.0000
  In  In2111    1.0  0.6052631580263158  0.9848484847727275  0.1896293  1.0000
  Se  Se3166    1.0  0.6052631580263158  0.9848484847727275  0.6763452799999999  1.0000
  In  In2112    1.0  0.6184210525  0.9924242425  0.8103706999999999  1.0000
  Se  Se3167    1.0  0.6184210525  0.9924242425  0.32365471999999995  1.0000
  Se  Se3168    1.0  0.6184210526315789  0.9772727272727274  0.0  1.0000
  In  In2113    1.0  0.6315789472368419  0.01515151522727273  0.8103706999999999  1.0000
  In  In2114    1.0  0.644736842236842  0.0075757575  0.1896293  1.0000
  Se  Se3169    1.0  0.6315789472368419  0.01515151522727273  0.32365471999999995  1.0000
  Se  Se3170    1.0  0.644736842236842  0.0075757575  0.6763452799999999  1.0000
  Se  Se3171    1.0  0.6315789473684209  0.0  0.0  1.0000
  In  In2115    1.0  0.6315789475  0.030303030227272734  0.1896293  1.0000
  Se  Se3172    1.0  0.6315789475  0.030303030227272734  0.6763452799999999  1.0000
  In  In2116    1.0  0.6447368419736842  0.03787878795454546  0.8103706999999999  1.0000
  Se  Se3173    1.0  0.6447368419736842  0.03787878795454546  0.32365471999999995  1.0000
  Se  Se3174    1.0  0.644736842105263  0.022727272727272728  0.0  1.0000
  In  In2117    1.0  0.6315789472368419  0.06060606068181818  0.8103706999999999  1.0000
  In  In2118    1.0  0.644736842236842  0.05303030295454546  0.1896293  1.0000
  Se  Se3175    1.0  0.6315789472368419  0.06060606068181818  0.32365471999999995  1.0000
  Se  Se3176    1.0  0.644736842236842  0.05303030295454546  0.6763452799999999  1.0000
  Se  Se3177    1.0  0.6315789473684209  0.045454545454545456  0.0  1.0000
  In  In2119    1.0  0.6315789475  0.07575757568181819  0.1896293  1.0000
  Se  Se3178    1.0  0.6315789475  0.07575757568181819  0.6763452799999999  1.0000
  In  In2120    1.0  0.6447368419736842  0.08333333340909092  0.8103706999999999  1.0000
  Se  Se3179    1.0  0.6447368419736842  0.08333333340909092  0.32365471999999995  1.0000
  Se  Se3180    1.0  0.644736842105263  0.06818181818181819  0.0  1.0000
  In  In2121    1.0  0.6315789472368419  0.10606060613636366  0.8103706999999999  1.0000
  In  In2122    1.0  0.644736842236842  0.09848484840909091  0.1896293  1.0000
  Se  Se3181    1.0  0.6315789472368419  0.10606060613636366  0.32365471999999995  1.0000
  Se  Se3182    1.0  0.644736842236842  0.09848484840909091  0.6763452799999999  1.0000
  Se  Se3183    1.0  0.6315789473684209  0.09090909090909091  0.0  1.0000
  In  In2123    1.0  0.6315789475  0.12121212113636365  0.1896293  1.0000
  Se  Se3184    1.0  0.6315789475  0.12121212113636365  0.6763452799999999  1.0000
  In  In2124    1.0  0.6447368419736842  0.12878787886363638  0.8103706999999999  1.0000
  Se  Se3185    1.0  0.6447368419736842  0.12878787886363638  0.32365471999999995  1.0000
  Se  Se3186    1.0  0.644736842105263  0.11363636363636365  0.0  1.0000
  In  In2125    1.0  0.6315789472368419  0.15151515159090911  0.8103706999999999  1.0000
  In  In2126    1.0  0.644736842236842  0.1439393938636364  0.1896293  1.0000
  Se  Se3187    1.0  0.6315789472368419  0.15151515159090911  0.32365471999999995  1.0000
  Se  Se3188    1.0  0.644736842236842  0.1439393938636364  0.6763452799999999  1.0000
  Se  Se3189    1.0  0.6315789473684209  0.13636363636363638  0.0  1.0000
  In  In2127    1.0  0.6315789475  0.16666666659090912  0.1896293  1.0000
  Se  Se3190    1.0  0.6315789475  0.16666666659090912  0.6763452799999999  1.0000
  In  In2128    1.0  0.6447368419736842  0.17424242431818185  0.8103706999999999  1.0000
  Se  Se3191    1.0  0.6447368419736842  0.17424242431818185  0.32365471999999995  1.0000
  Se  Se3192    1.0  0.644736842105263  0.15909090909090912  0.0  1.0000
  In  In2129    1.0  0.6315789472368419  0.19696969704545458  0.8103706999999999  1.0000
  In  In2130    1.0  0.644736842236842  0.18939393931818185  0.1896293  1.0000
  Se  Se3193    1.0  0.6315789472368419  0.19696969704545458  0.32365471999999995  1.0000
  Se  Se3194    1.0  0.644736842236842  0.18939393931818185  0.6763452799999999  1.0000
  Se  Se3195    1.0  0.6315789473684209  0.18181818181818182  0.0  1.0000
  In  In2131    1.0  0.6315789475  0.21212121204545456  0.1896293  1.0000
  Se  Se3196    1.0  0.6315789475  0.21212121204545456  0.6763452799999999  1.0000
  In  In2132    1.0  0.6447368419736842  0.21969696977272726  0.8103706999999999  1.0000
  Se  Se3197    1.0  0.6447368419736842  0.21969696977272726  0.32365471999999995  1.0000
  Se  Se3198    1.0  0.644736842105263  0.20454545454545456  0.0  1.0000
  In  In2133    1.0  0.6315789472368419  0.2424242425  0.8103706999999999  1.0000
  In  In2134    1.0  0.644736842236842  0.2348484847727273  0.1896293  1.0000
  Se  Se3199    1.0  0.6315789472368419  0.2424242425  0.32365471999999995  1.0000
  Se  Se3200    1.0  0.644736842236842  0.2348484847727273  0.6763452799999999  1.0000
  Se  Se3201    1.0  0.6315789473684209  0.2272727272727273  0.0  1.0000
  In  In2135    1.0  0.6315789475  0.2575757575  0.1896293  1.0000
  Se  Se3202    1.0  0.6315789475  0.2575757575  0.6763452799999999  1.0000
  In  In2136    1.0  0.6447368419736842  0.2651515152272727  0.8103706999999999  1.0000
  Se  Se3203    1.0  0.6447368419736842  0.2651515152272727  0.32365471999999995  1.0000
  Se  Se3204    1.0  0.644736842105263  0.25  0.0  1.0000
  In  In2137    1.0  0.6315789472368419  0.28787878795454547  0.8103706999999999  1.0000
  In  In2138    1.0  0.644736842236842  0.28030303022727276  0.1896293  1.0000
  Se  Se3205    1.0  0.6315789472368419  0.28787878795454547  0.32365471999999995  1.0000
  Se  Se3206    1.0  0.644736842236842  0.28030303022727276  0.6763452799999999  1.0000
  Se  Se3207    1.0  0.6315789473684209  0.27272727272727276  0.0  1.0000
  In  In2139    1.0  0.6315789475  0.3030303029545455  0.1896293  1.0000
  Se  Se3208    1.0  0.6315789475  0.3030303029545455  0.6763452799999999  1.0000
  In  In2140    1.0  0.6447368419736842  0.3106060606818183  0.8103706999999999  1.0000
  Se  Se3209    1.0  0.6447368419736842  0.3106060606818183  0.32365471999999995  1.0000
  Se  Se3210    1.0  0.644736842105263  0.2954545454545455  0.0  1.0000
  In  In2141    1.0  0.6315789472368419  0.33333333340909094  0.8103706999999999  1.0000
  In  In2142    1.0  0.644736842236842  0.32575757568181823  0.1896293  1.0000
  Se  Se3211    1.0  0.6315789472368419  0.33333333340909094  0.32365471999999995  1.0000
  Se  Se3212    1.0  0.644736842236842  0.32575757568181823  0.6763452799999999  1.0000
  Se  Se3213    1.0  0.6315789473684209  0.31818181818181823  0.0  1.0000
  In  In2143    1.0  0.6315789475  0.34848484840909094  0.1896293  1.0000
  Se  Se3214    1.0  0.6315789475  0.34848484840909094  0.6763452799999999  1.0000
  In  In2144    1.0  0.6447368419736842  0.3560606061363637  0.8103706999999999  1.0000
  Se  Se3215    1.0  0.6447368419736842  0.3560606061363637  0.32365471999999995  1.0000
  Se  Se3216    1.0  0.644736842105263  0.34090909090909094  0.0  1.0000
  In  In2145    1.0  0.6315789472368419  0.3787878788636364  0.8103706999999999  1.0000
  In  In2146    1.0  0.644736842236842  0.3712121211363637  0.1896293  1.0000
  Se  Se3217    1.0  0.6315789472368419  0.3787878788636364  0.32365471999999995  1.0000
  Se  Se3218    1.0  0.644736842236842  0.3712121211363637  0.6763452799999999  1.0000
  Se  Se3219    1.0  0.6315789473684209  0.36363636363636365  0.0  1.0000
  In  In2147    1.0  0.6315789475  0.3939393938636364  0.1896293  1.0000
  Se  Se3220    1.0  0.6315789475  0.3939393938636364  0.6763452799999999  1.0000
  In  In2148    1.0  0.6447368419736842  0.40151515159090917  0.8103706999999999  1.0000
  Se  Se3221    1.0  0.6447368419736842  0.40151515159090917  0.32365471999999995  1.0000
  Se  Se3222    1.0  0.644736842105263  0.3863636363636364  0.0  1.0000
  In  In2149    1.0  0.6315789472368419  0.4242424243181818  0.8103706999999999  1.0000
  In  In2150    1.0  0.644736842236842  0.4166666665909091  0.1896293  1.0000
  Se  Se3223    1.0  0.6315789472368419  0.4242424243181818  0.32365471999999995  1.0000
  Se  Se3224    1.0  0.644736842236842  0.4166666665909091  0.6763452799999999  1.0000
  Se  Se3225    1.0  0.6315789473684209  0.4090909090909091  0.0  1.0000
  In  In2151    1.0  0.6315789475  0.4393939393181818  0.1896293  1.0000
  Se  Se3226    1.0  0.6315789475  0.4393939393181818  0.6763452799999999  1.0000
  In  In2152    1.0  0.6447368419736842  0.4469696970454546  0.8103706999999999  1.0000
  Se  Se3227    1.0  0.6447368419736842  0.4469696970454546  0.32365471999999995  1.0000
  Se  Se3228    1.0  0.644736842105263  0.4318181818181819  0.0  1.0000
  In  In2153    1.0  0.6315789472368419  0.4696969697727273  0.8103706999999999  1.0000
  In  In2154    1.0  0.644736842236842  0.46212121204545453  0.1896293  1.0000
  Se  Se3229    1.0  0.6315789472368419  0.4696969697727273  0.32365471999999995  1.0000
  Se  Se3230    1.0  0.644736842236842  0.46212121204545453  0.6763452799999999  1.0000
  Se  Se3231    1.0  0.6315789473684209  0.4545454545454546  0.0  1.0000
  In  In2155    1.0  0.6315789475  0.4848484847727273  0.1896293  1.0000
  Se  Se3232    1.0  0.6315789475  0.4848484847727273  0.6763452799999999  1.0000
  In  In2156    1.0  0.6447368419736842  0.49242424250000005  0.8103706999999999  1.0000
  Se  Se3233    1.0  0.6447368419736842  0.49242424250000005  0.32365471999999995  1.0000
  Se  Se3234    1.0  0.644736842105263  0.47727272727272735  0.0  1.0000
  In  In2157    1.0  0.6315789472368419  0.5151515152272728  0.8103706999999999  1.0000
  In  In2158    1.0  0.644736842236842  0.5075757575  0.1896293  1.0000
  Se  Se3235    1.0  0.6315789472368419  0.5151515152272728  0.32365471999999995  1.0000
  Se  Se3236    1.0  0.644736842236842  0.5075757575  0.6763452799999999  1.0000
  Se  Se3237    1.0  0.6315789473684209  0.5  0.0  1.0000
  In  In2159    1.0  0.6315789475  0.5303030302272728  0.1896293  1.0000
  Se  Se3238    1.0  0.6315789475  0.5303030302272728  0.6763452799999999  1.0000
  In  In2160    1.0  0.6447368419736842  0.5378787879545455  0.8103706999999999  1.0000
  Se  Se3239    1.0  0.6447368419736842  0.5378787879545455  0.32365471999999995  1.0000
  Se  Se3240    1.0  0.644736842105263  0.5227272727272728  0.0  1.0000
  In  In2161    1.0  0.6315789472368419  0.5606060606818183  0.8103706999999999  1.0000
  In  In2162    1.0  0.644736842236842  0.5530303029545455  0.1896293  1.0000
  Se  Se3241    1.0  0.6315789472368419  0.5606060606818183  0.32365471999999995  1.0000
  Se  Se3242    1.0  0.644736842236842  0.5530303029545455  0.6763452799999999  1.0000
  Se  Se3243    1.0  0.6315789473684209  0.5454545454545455  0.0  1.0000
  In  In2163    1.0  0.6315789475  0.5757575756818183  0.1896293  1.0000
  Se  Se3244    1.0  0.6315789475  0.5757575756818183  0.6763452799999999  1.0000
  In  In2164    1.0  0.6447368419736842  0.583333333409091  0.8103706999999999  1.0000
  Se  Se3245    1.0  0.6447368419736842  0.583333333409091  0.32365471999999995  1.0000
  Se  Se3246    1.0  0.644736842105263  0.5681818181818183  0.0  1.0000
  In  In2165    1.0  0.6315789472368419  0.6060606061363637  0.8103706999999999  1.0000
  In  In2166    1.0  0.644736842236842  0.598484848409091  0.1896293  1.0000
  Se  Se3247    1.0  0.6315789472368419  0.6060606061363637  0.32365471999999995  1.0000
  Se  Se3248    1.0  0.644736842236842  0.598484848409091  0.6763452799999999  1.0000
  Se  Se3249    1.0  0.6315789473684209  0.590909090909091  0.0  1.0000
  In  In2167    1.0  0.6315789475  0.6212121211363637  0.1896293  1.0000
  Se  Se3250    1.0  0.6315789475  0.6212121211363637  0.6763452799999999  1.0000
  In  In2168    1.0  0.6447368419736842  0.6287878788636365  0.8103706999999999  1.0000
  Se  Se3251    1.0  0.6447368419736842  0.6287878788636365  0.32365471999999995  1.0000
  Se  Se3252    1.0  0.644736842105263  0.6136363636363638  0.0  1.0000
  In  In2169    1.0  0.6315789472368419  0.6515151515909091  0.8103706999999999  1.0000
  In  In2170    1.0  0.644736842236842  0.6439393938636364  0.1896293  1.0000
  Se  Se3253    1.0  0.6315789472368419  0.6515151515909091  0.32365471999999995  1.0000
  Se  Se3254    1.0  0.644736842236842  0.6439393938636364  0.6763452799999999  1.0000
  Se  Se3255    1.0  0.6315789473684209  0.6363636363636365  0.0  1.0000
  In  In2171    1.0  0.6315789475  0.6666666665909092  0.1896293  1.0000
  Se  Se3256    1.0  0.6315789475  0.6666666665909092  0.6763452799999999  1.0000
  In  In2172    1.0  0.6447368419736842  0.6742424243181819  0.8103706999999999  1.0000
  Se  Se3257    1.0  0.6447368419736842  0.6742424243181819  0.32365471999999995  1.0000
  Se  Se3258    1.0  0.644736842105263  0.6590909090909092  0.0  1.0000
  In  In2173    1.0  0.6315789472368419  0.6969696970454546  0.8103706999999999  1.0000
  In  In2174    1.0  0.644736842236842  0.6893939393181818  0.1896293  1.0000
  Se  Se3259    1.0  0.6315789472368419  0.6969696970454546  0.32365471999999995  1.0000
  Se  Se3260    1.0  0.644736842236842  0.6893939393181818  0.6763452799999999  1.0000
  Se  Se3261    1.0  0.6315789473684209  0.6818181818181819  0.0  1.0000
  In  In2175    1.0  0.6315789475  0.7121212120454546  0.1896293  1.0000
  Se  Se3262    1.0  0.6315789475  0.7121212120454546  0.6763452799999999  1.0000
  In  In2176    1.0  0.6447368419736842  0.7196969697727273  0.8103706999999999  1.0000
  Se  Se3263    1.0  0.6447368419736842  0.7196969697727273  0.32365471999999995  1.0000
  Se  Se3264    1.0  0.644736842105263  0.7045454545454547  0.0  1.0000
  In  In2177    1.0  0.6315789472368419  0.7424242425  0.8103706999999999  1.0000
  In  In2178    1.0  0.644736842236842  0.7348484847727274  0.1896293  1.0000
  Se  Se3265    1.0  0.6315789472368419  0.7424242425  0.32365471999999995  1.0000
  Se  Se3266    1.0  0.644736842236842  0.7348484847727274  0.6763452799999999  1.0000
  Se  Se3267    1.0  0.6315789473684209  0.7272727272727273  0.0  1.0000
  In  In2179    1.0  0.6315789475  0.7575757575000001  0.1896293  1.0000
  Se  Se3268    1.0  0.6315789475  0.7575757575000001  0.6763452799999999  1.0000
  In  In2180    1.0  0.6447368419736842  0.7651515152272729  0.8103706999999999  1.0000
  Se  Se3269    1.0  0.6447368419736842  0.7651515152272729  0.32365471999999995  1.0000
  Se  Se3270    1.0  0.644736842105263  0.7500000000000001  0.0  1.0000
  In  In2181    1.0  0.6315789472368419  0.7878787879545455  0.8103706999999999  1.0000
  In  In2182    1.0  0.644736842236842  0.7803030302272728  0.1896293  1.0000
  Se  Se3271    1.0  0.6315789472368419  0.7878787879545455  0.32365471999999995  1.0000
  Se  Se3272    1.0  0.644736842236842  0.7803030302272728  0.6763452799999999  1.0000
  Se  Se3273    1.0  0.6315789473684209  0.7727272727272728  0.0  1.0000
  In  In2183    1.0  0.6315789475  0.8030303029545455  0.1896293  1.0000
  Se  Se3274    1.0  0.6315789475  0.8030303029545455  0.6763452799999999  1.0000
  In  In2184    1.0  0.6447368419736842  0.8106060606818183  0.8103706999999999  1.0000
  Se  Se3275    1.0  0.6447368419736842  0.8106060606818183  0.32365471999999995  1.0000
  Se  Se3276    1.0  0.644736842105263  0.7954545454545455  0.0  1.0000
  In  In2185    1.0  0.6315789472368419  0.833333333409091  0.8103706999999999  1.0000
  In  In2186    1.0  0.644736842236842  0.8257575756818182  0.1896293  1.0000
  Se  Se3277    1.0  0.6315789472368419  0.833333333409091  0.32365471999999995  1.0000
  Se  Se3278    1.0  0.644736842236842  0.8257575756818182  0.6763452799999999  1.0000
  Se  Se3279    1.0  0.6315789473684209  0.8181818181818182  0.0  1.0000
  In  In2187    1.0  0.6315789475  0.848484848409091  0.1896293  1.0000
  Se  Se3280    1.0  0.6315789475  0.848484848409091  0.6763452799999999  1.0000
  In  In2188    1.0  0.6447368419736842  0.8560606061363636  0.8103706999999999  1.0000
  Se  Se3281    1.0  0.6447368419736842  0.8560606061363636  0.32365471999999995  1.0000
  Se  Se3282    1.0  0.644736842105263  0.840909090909091  0.0  1.0000
  In  In2189    1.0  0.6315789472368419  0.8787878788636366  0.8103706999999999  1.0000
  In  In2190    1.0  0.644736842236842  0.8712121211363637  0.1896293  1.0000
  Se  Se3283    1.0  0.6315789472368419  0.8787878788636366  0.32365471999999995  1.0000
  Se  Se3284    1.0  0.644736842236842  0.8712121211363637  0.6763452799999999  1.0000
  Se  Se3285    1.0  0.6315789473684209  0.8636363636363638  0.0  1.0000
  In  In2191    1.0  0.6315789475  0.8939393938636365  0.1896293  1.0000
  Se  Se3286    1.0  0.6315789475  0.8939393938636365  0.6763452799999999  1.0000
  In  In2192    1.0  0.6447368419736842  0.9015151515909092  0.8103706999999999  1.0000
  Se  Se3287    1.0  0.6447368419736842  0.9015151515909092  0.32365471999999995  1.0000
  Se  Se3288    1.0  0.644736842105263  0.8863636363636366  0.0  1.0000
  In  In2193    1.0  0.6315789472368419  0.9242424243181819  0.8103706999999999  1.0000
  In  In2194    1.0  0.644736842236842  0.9166666665909091  0.1896293  1.0000
  Se  Se3289    1.0  0.6315789472368419  0.9242424243181819  0.32365471999999995  1.0000
  Se  Se3290    1.0  0.644736842236842  0.9166666665909091  0.6763452799999999  1.0000
  Se  Se3291    1.0  0.6315789473684209  0.9090909090909092  0.0  1.0000
  In  In2195    1.0  0.6315789475  0.9393939393181818  0.1896293  1.0000
  Se  Se3292    1.0  0.6315789475  0.9393939393181818  0.6763452799999999  1.0000
  In  In2196    1.0  0.6447368419736842  0.9469696970454545  0.8103706999999999  1.0000
  Se  Se3293    1.0  0.6447368419736842  0.9469696970454545  0.32365471999999995  1.0000
  Se  Se3294    1.0  0.644736842105263  0.9318181818181819  0.0  1.0000
  In  In2197    1.0  0.6315789472368419  0.9696969697727275  0.8103706999999999  1.0000
  In  In2198    1.0  0.644736842236842  0.9621212120454546  0.1896293  1.0000
  Se  Se3295    1.0  0.6315789472368419  0.9696969697727275  0.32365471999999995  1.0000
  Se  Se3296    1.0  0.644736842236842  0.9621212120454546  0.6763452799999999  1.0000
  Se  Se3297    1.0  0.6315789473684209  0.9545454545454547  0.0  1.0000
  In  In2199    1.0  0.6315789475  0.9848484847727275  0.1896293  1.0000
  Se  Se3298    1.0  0.6315789475  0.9848484847727275  0.6763452799999999  1.0000
  In  In2200    1.0  0.6447368419736842  0.9924242425  0.8103706999999999  1.0000
  Se  Se3299    1.0  0.6447368419736842  0.9924242425  0.32365471999999995  1.0000
  Se  Se3300    1.0  0.644736842105263  0.9772727272727274  0.0  1.0000
  In  In2201    1.0  0.6578947367105262  0.01515151522727273  0.8103706999999999  1.0000
  In  In2202    1.0  0.6710526317105263  0.0075757575  0.1896293  1.0000
  Se  Se3301    1.0  0.6578947367105262  0.01515151522727273  0.32365471999999995  1.0000
  Se  Se3302    1.0  0.6710526317105263  0.0075757575  0.6763452799999999  1.0000
  Se  Se3303    1.0  0.6578947368421052  0.0  0.0  1.0000
  In  In2203    1.0  0.6578947369736843  0.030303030227272734  0.1896293  1.0000
  Se  Se3304    1.0  0.6578947369736843  0.030303030227272734  0.6763452799999999  1.0000
  In  In2204    1.0  0.6710526314473685  0.03787878795454546  0.8103706999999999  1.0000
  Se  Se3305    1.0  0.6710526314473685  0.03787878795454546  0.32365471999999995  1.0000
  Se  Se3306    1.0  0.6710526315789473  0.022727272727272728  0.0  1.0000
  In  In2205    1.0  0.6578947367105262  0.06060606068181818  0.8103706999999999  1.0000
  In  In2206    1.0  0.6710526317105263  0.05303030295454546  0.1896293  1.0000
  Se  Se3307    1.0  0.6578947367105262  0.06060606068181818  0.32365471999999995  1.0000
  Se  Se3308    1.0  0.6710526317105263  0.05303030295454546  0.6763452799999999  1.0000
  Se  Se3309    1.0  0.6578947368421052  0.045454545454545456  0.0  1.0000
  In  In2207    1.0  0.6578947369736843  0.07575757568181819  0.1896293  1.0000
  Se  Se3310    1.0  0.6578947369736843  0.07575757568181819  0.6763452799999999  1.0000
  In  In2208    1.0  0.6710526314473685  0.08333333340909092  0.8103706999999999  1.0000
  Se  Se3311    1.0  0.6710526314473685  0.08333333340909092  0.32365471999999995  1.0000
  Se  Se3312    1.0  0.6710526315789473  0.06818181818181819  0.0  1.0000
  In  In2209    1.0  0.6578947367105262  0.10606060613636366  0.8103706999999999  1.0000
  In  In2210    1.0  0.6710526317105263  0.09848484840909091  0.1896293  1.0000
  Se  Se3313    1.0  0.6578947367105262  0.10606060613636366  0.32365471999999995  1.0000
  Se  Se3314    1.0  0.6710526317105263  0.09848484840909091  0.6763452799999999  1.0000
  Se  Se3315    1.0  0.6578947368421052  0.09090909090909091  0.0  1.0000
  In  In2211    1.0  0.6578947369736843  0.12121212113636365  0.1896293  1.0000
  Se  Se3316    1.0  0.6578947369736843  0.12121212113636365  0.6763452799999999  1.0000
  In  In2212    1.0  0.6710526314473685  0.12878787886363638  0.8103706999999999  1.0000
  Se  Se3317    1.0  0.6710526314473685  0.12878787886363638  0.32365471999999995  1.0000
  Se  Se3318    1.0  0.6710526315789473  0.11363636363636365  0.0  1.0000
  In  In2213    1.0  0.6578947367105262  0.15151515159090911  0.8103706999999999  1.0000
  In  In2214    1.0  0.6710526317105263  0.1439393938636364  0.1896293  1.0000
  Se  Se3319    1.0  0.6578947367105262  0.15151515159090911  0.32365471999999995  1.0000
  Se  Se3320    1.0  0.6710526317105263  0.1439393938636364  0.6763452799999999  1.0000
  Se  Se3321    1.0  0.6578947368421052  0.13636363636363638  0.0  1.0000
  In  In2215    1.0  0.6578947369736843  0.16666666659090912  0.1896293  1.0000
  Se  Se3322    1.0  0.6578947369736843  0.16666666659090912  0.6763452799999999  1.0000
  In  In2216    1.0  0.6710526314473685  0.17424242431818185  0.8103706999999999  1.0000
  Se  Se3323    1.0  0.6710526314473685  0.17424242431818185  0.32365471999999995  1.0000
  Se  Se3324    1.0  0.6710526315789473  0.15909090909090912  0.0  1.0000
  In  In2217    1.0  0.6578947367105262  0.19696969704545458  0.8103706999999999  1.0000
  In  In2218    1.0  0.6710526317105263  0.18939393931818185  0.1896293  1.0000
  Se  Se3325    1.0  0.6578947367105262  0.19696969704545458  0.32365471999999995  1.0000
  Se  Se3326    1.0  0.6710526317105263  0.18939393931818185  0.6763452799999999  1.0000
  Se  Se3327    1.0  0.6578947368421052  0.18181818181818182  0.0  1.0000
  In  In2219    1.0  0.6578947369736843  0.21212121204545456  0.1896293  1.0000
  Se  Se3328    1.0  0.6578947369736843  0.21212121204545456  0.6763452799999999  1.0000
  In  In2220    1.0  0.6710526314473685  0.21969696977272726  0.8103706999999999  1.0000
  Se  Se3329    1.0  0.6710526314473685  0.21969696977272726  0.32365471999999995  1.0000
  Se  Se3330    1.0  0.6710526315789473  0.20454545454545456  0.0  1.0000
  In  In2221    1.0  0.6578947367105262  0.2424242425  0.8103706999999999  1.0000
  In  In2222    1.0  0.6710526317105263  0.2348484847727273  0.1896293  1.0000
  Se  Se3331    1.0  0.6578947367105262  0.2424242425  0.32365471999999995  1.0000
  Se  Se3332    1.0  0.6710526317105263  0.2348484847727273  0.6763452799999999  1.0000
  Se  Se3333    1.0  0.6578947368421052  0.2272727272727273  0.0  1.0000
  In  In2223    1.0  0.6578947369736843  0.2575757575  0.1896293  1.0000
  Se  Se3334    1.0  0.6578947369736843  0.2575757575  0.6763452799999999  1.0000
  In  In2224    1.0  0.6710526314473685  0.2651515152272727  0.8103706999999999  1.0000
  Se  Se3335    1.0  0.6710526314473685  0.2651515152272727  0.32365471999999995  1.0000
  Se  Se3336    1.0  0.6710526315789473  0.25  0.0  1.0000
  In  In2225    1.0  0.6578947367105262  0.28787878795454547  0.8103706999999999  1.0000
  In  In2226    1.0  0.6710526317105263  0.28030303022727276  0.1896293  1.0000
  Se  Se3337    1.0  0.6578947367105262  0.28787878795454547  0.32365471999999995  1.0000
  Se  Se3338    1.0  0.6710526317105263  0.28030303022727276  0.6763452799999999  1.0000
  Se  Se3339    1.0  0.6578947368421052  0.27272727272727276  0.0  1.0000
  In  In2227    1.0  0.6578947369736843  0.3030303029545455  0.1896293  1.0000
  Se  Se3340    1.0  0.6578947369736843  0.3030303029545455  0.6763452799999999  1.0000
  In  In2228    1.0  0.6710526314473685  0.3106060606818183  0.8103706999999999  1.0000
  Se  Se3341    1.0  0.6710526314473685  0.3106060606818183  0.32365471999999995  1.0000
  Se  Se3342    1.0  0.6710526315789473  0.2954545454545455  0.0  1.0000
  In  In2229    1.0  0.6578947367105262  0.33333333340909094  0.8103706999999999  1.0000
  In  In2230    1.0  0.6710526317105263  0.32575757568181823  0.1896293  1.0000
  Se  Se3343    1.0  0.6578947367105262  0.33333333340909094  0.32365471999999995  1.0000
  Se  Se3344    1.0  0.6710526317105263  0.32575757568181823  0.6763452799999999  1.0000
  Se  Se3345    1.0  0.6578947368421052  0.31818181818181823  0.0  1.0000
  In  In2231    1.0  0.6578947369736843  0.34848484840909094  0.1896293  1.0000
  Se  Se3346    1.0  0.6578947369736843  0.34848484840909094  0.6763452799999999  1.0000
  In  In2232    1.0  0.6710526314473685  0.3560606061363637  0.8103706999999999  1.0000
  Se  Se3347    1.0  0.6710526314473685  0.3560606061363637  0.32365471999999995  1.0000
  Se  Se3348    1.0  0.6710526315789473  0.34090909090909094  0.0  1.0000
  In  In2233    1.0  0.6578947367105262  0.3787878788636364  0.8103706999999999  1.0000
  In  In2234    1.0  0.6710526317105263  0.3712121211363637  0.1896293  1.0000
  Se  Se3349    1.0  0.6578947367105262  0.3787878788636364  0.32365471999999995  1.0000
  Se  Se3350    1.0  0.6710526317105263  0.3712121211363637  0.6763452799999999  1.0000
  Se  Se3351    1.0  0.6578947368421052  0.36363636363636365  0.0  1.0000
  In  In2235    1.0  0.6578947369736843  0.3939393938636364  0.1896293  1.0000
  Se  Se3352    1.0  0.6578947369736843  0.3939393938636364  0.6763452799999999  1.0000
  In  In2236    1.0  0.6710526314473685  0.40151515159090917  0.8103706999999999  1.0000
  Se  Se3353    1.0  0.6710526314473685  0.40151515159090917  0.32365471999999995  1.0000
  Se  Se3354    1.0  0.6710526315789473  0.3863636363636364  0.0  1.0000
  In  In2237    1.0  0.6578947367105262  0.4242424243181818  0.8103706999999999  1.0000
  In  In2238    1.0  0.6710526317105263  0.4166666665909091  0.1896293  1.0000
  Se  Se3355    1.0  0.6578947367105262  0.4242424243181818  0.32365471999999995  1.0000
  Se  Se3356    1.0  0.6710526317105263  0.4166666665909091  0.6763452799999999  1.0000
  Se  Se3357    1.0  0.6578947368421052  0.4090909090909091  0.0  1.0000
  In  In2239    1.0  0.6578947369736843  0.4393939393181818  0.1896293  1.0000
  Se  Se3358    1.0  0.6578947369736843  0.4393939393181818  0.6763452799999999  1.0000
  In  In2240    1.0  0.6710526314473685  0.4469696970454546  0.8103706999999999  1.0000
  Se  Se3359    1.0  0.6710526314473685  0.4469696970454546  0.32365471999999995  1.0000
  Se  Se3360    1.0  0.6710526315789473  0.4318181818181819  0.0  1.0000
  In  In2241    1.0  0.6578947367105262  0.4696969697727273  0.8103706999999999  1.0000
  In  In2242    1.0  0.6710526317105263  0.46212121204545453  0.1896293  1.0000
  Se  Se3361    1.0  0.6578947367105262  0.4696969697727273  0.32365471999999995  1.0000
  Se  Se3362    1.0  0.6710526317105263  0.46212121204545453  0.6763452799999999  1.0000
  Se  Se3363    1.0  0.6578947368421052  0.4545454545454546  0.0  1.0000
  In  In2243    1.0  0.6578947369736843  0.4848484847727273  0.1896293  1.0000
  Se  Se3364    1.0  0.6578947369736843  0.4848484847727273  0.6763452799999999  1.0000
  In  In2244    1.0  0.6710526314473685  0.49242424250000005  0.8103706999999999  1.0000
  Se  Se3365    1.0  0.6710526314473685  0.49242424250000005  0.32365471999999995  1.0000
  Se  Se3366    1.0  0.6710526315789473  0.47727272727272735  0.0  1.0000
  In  In2245    1.0  0.6578947367105262  0.5151515152272728  0.8103706999999999  1.0000
  In  In2246    1.0  0.6710526317105263  0.5075757575  0.1896293  1.0000
  Se  Se3367    1.0  0.6578947367105262  0.5151515152272728  0.32365471999999995  1.0000
  Se  Se3368    1.0  0.6710526317105263  0.5075757575  0.6763452799999999  1.0000
  Se  Se3369    1.0  0.6578947368421052  0.5  0.0  1.0000
  In  In2247    1.0  0.6578947369736843  0.5303030302272728  0.1896293  1.0000
  Se  Se3370    1.0  0.6578947369736843  0.5303030302272728  0.6763452799999999  1.0000
  In  In2248    1.0  0.6710526314473685  0.5378787879545455  0.8103706999999999  1.0000
  Se  Se3371    1.0  0.6710526314473685  0.5378787879545455  0.32365471999999995  1.0000
  Se  Se3372    1.0  0.6710526315789473  0.5227272727272728  0.0  1.0000
  In  In2249    1.0  0.6578947367105262  0.5606060606818183  0.8103706999999999  1.0000
  In  In2250    1.0  0.6710526317105263  0.5530303029545455  0.1896293  1.0000
  Se  Se3373    1.0  0.6578947367105262  0.5606060606818183  0.32365471999999995  1.0000
  Se  Se3374    1.0  0.6710526317105263  0.5530303029545455  0.6763452799999999  1.0000
  Se  Se3375    1.0  0.6578947368421052  0.5454545454545455  0.0  1.0000
  In  In2251    1.0  0.6578947369736843  0.5757575756818183  0.1896293  1.0000
  Se  Se3376    1.0  0.6578947369736843  0.5757575756818183  0.6763452799999999  1.0000
  In  In2252    1.0  0.6710526314473685  0.583333333409091  0.8103706999999999  1.0000
  Se  Se3377    1.0  0.6710526314473685  0.583333333409091  0.32365471999999995  1.0000
  Se  Se3378    1.0  0.6710526315789473  0.5681818181818183  0.0  1.0000
  In  In2253    1.0  0.6578947367105262  0.6060606061363637  0.8103706999999999  1.0000
  In  In2254    1.0  0.6710526317105263  0.598484848409091  0.1896293  1.0000
  Se  Se3379    1.0  0.6578947367105262  0.6060606061363637  0.32365471999999995  1.0000
  Se  Se3380    1.0  0.6710526317105263  0.598484848409091  0.6763452799999999  1.0000
  Se  Se3381    1.0  0.6578947368421052  0.590909090909091  0.0  1.0000
  In  In2255    1.0  0.6578947369736843  0.6212121211363637  0.1896293  1.0000
  Se  Se3382    1.0  0.6578947369736843  0.6212121211363637  0.6763452799999999  1.0000
  In  In2256    1.0  0.6710526314473685  0.6287878788636365  0.8103706999999999  1.0000
  Se  Se3383    1.0  0.6710526314473685  0.6287878788636365  0.32365471999999995  1.0000
  Se  Se3384    1.0  0.6710526315789473  0.6136363636363638  0.0  1.0000
  In  In2257    1.0  0.6578947367105262  0.6515151515909091  0.8103706999999999  1.0000
  In  In2258    1.0  0.6710526317105263  0.6439393938636364  0.1896293  1.0000
  Se  Se3385    1.0  0.6578947367105262  0.6515151515909091  0.32365471999999995  1.0000
  Se  Se3386    1.0  0.6710526317105263  0.6439393938636364  0.6763452799999999  1.0000
  Se  Se3387    1.0  0.6578947368421052  0.6363636363636365  0.0  1.0000
  In  In2259    1.0  0.6578947369736843  0.6666666665909092  0.1896293  1.0000
  Se  Se3388    1.0  0.6578947369736843  0.6666666665909092  0.6763452799999999  1.0000
  In  In2260    1.0  0.6710526314473685  0.6742424243181819  0.8103706999999999  1.0000
  Se  Se3389    1.0  0.6710526314473685  0.6742424243181819  0.32365471999999995  1.0000
  Se  Se3390    1.0  0.6710526315789473  0.6590909090909092  0.0  1.0000
  In  In2261    1.0  0.6578947367105262  0.6969696970454546  0.8103706999999999  1.0000
  In  In2262    1.0  0.6710526317105263  0.6893939393181818  0.1896293  1.0000
  Se  Se3391    1.0  0.6578947367105262  0.6969696970454546  0.32365471999999995  1.0000
  Se  Se3392    1.0  0.6710526317105263  0.6893939393181818  0.6763452799999999  1.0000
  Se  Se3393    1.0  0.6578947368421052  0.6818181818181819  0.0  1.0000
  In  In2263    1.0  0.6578947369736843  0.7121212120454546  0.1896293  1.0000
  Se  Se3394    1.0  0.6578947369736843  0.7121212120454546  0.6763452799999999  1.0000
  In  In2264    1.0  0.6710526314473685  0.7196969697727273  0.8103706999999999  1.0000
  Se  Se3395    1.0  0.6710526314473685  0.7196969697727273  0.32365471999999995  1.0000
  Se  Se3396    1.0  0.6710526315789473  0.7045454545454547  0.0  1.0000
  In  In2265    1.0  0.6578947367105262  0.7424242425  0.8103706999999999  1.0000
  In  In2266    1.0  0.6710526317105263  0.7348484847727274  0.1896293  1.0000
  Se  Se3397    1.0  0.6578947367105262  0.7424242425  0.32365471999999995  1.0000
  Se  Se3398    1.0  0.6710526317105263  0.7348484847727274  0.6763452799999999  1.0000
  Se  Se3399    1.0  0.6578947368421052  0.7272727272727273  0.0  1.0000
  In  In2267    1.0  0.6578947369736843  0.7575757575000001  0.1896293  1.0000
  Se  Se3400    1.0  0.6578947369736843  0.7575757575000001  0.6763452799999999  1.0000
  In  In2268    1.0  0.6710526314473685  0.7651515152272729  0.8103706999999999  1.0000
  Se  Se3401    1.0  0.6710526314473685  0.7651515152272729  0.32365471999999995  1.0000
  Se  Se3402    1.0  0.6710526315789473  0.7500000000000001  0.0  1.0000
  In  In2269    1.0  0.6578947367105262  0.7878787879545455  0.8103706999999999  1.0000
  In  In2270    1.0  0.6710526317105263  0.7803030302272728  0.1896293  1.0000
  Se  Se3403    1.0  0.6578947367105262  0.7878787879545455  0.32365471999999995  1.0000
  Se  Se3404    1.0  0.6710526317105263  0.7803030302272728  0.6763452799999999  1.0000
  Se  Se3405    1.0  0.6578947368421052  0.7727272727272728  0.0  1.0000
  In  In2271    1.0  0.6578947369736843  0.8030303029545455  0.1896293  1.0000
  Se  Se3406    1.0  0.6578947369736843  0.8030303029545455  0.6763452799999999  1.0000
  In  In2272    1.0  0.6710526314473685  0.8106060606818183  0.8103706999999999  1.0000
  Se  Se3407    1.0  0.6710526314473685  0.8106060606818183  0.32365471999999995  1.0000
  Se  Se3408    1.0  0.6710526315789473  0.7954545454545455  0.0  1.0000
  In  In2273    1.0  0.6578947367105262  0.833333333409091  0.8103706999999999  1.0000
  In  In2274    1.0  0.6710526317105263  0.8257575756818182  0.1896293  1.0000
  Se  Se3409    1.0  0.6578947367105262  0.833333333409091  0.32365471999999995  1.0000
  Se  Se3410    1.0  0.6710526317105263  0.8257575756818182  0.6763452799999999  1.0000
  Se  Se3411    1.0  0.6578947368421052  0.8181818181818182  0.0  1.0000
  In  In2275    1.0  0.6578947369736843  0.848484848409091  0.1896293  1.0000
  Se  Se3412    1.0  0.6578947369736843  0.848484848409091  0.6763452799999999  1.0000
  In  In2276    1.0  0.6710526314473685  0.8560606061363636  0.8103706999999999  1.0000
  Se  Se3413    1.0  0.6710526314473685  0.8560606061363636  0.32365471999999995  1.0000
  Se  Se3414    1.0  0.6710526315789473  0.840909090909091  0.0  1.0000
  In  In2277    1.0  0.6578947367105262  0.8787878788636366  0.8103706999999999  1.0000
  In  In2278    1.0  0.6710526317105263  0.8712121211363637  0.1896293  1.0000
  Se  Se3415    1.0  0.6578947367105262  0.8787878788636366  0.32365471999999995  1.0000
  Se  Se3416    1.0  0.6710526317105263  0.8712121211363637  0.6763452799999999  1.0000
  Se  Se3417    1.0  0.6578947368421052  0.8636363636363638  0.0  1.0000
  In  In2279    1.0  0.6578947369736843  0.8939393938636365  0.1896293  1.0000
  Se  Se3418    1.0  0.6578947369736843  0.8939393938636365  0.6763452799999999  1.0000
  In  In2280    1.0  0.6710526314473685  0.9015151515909092  0.8103706999999999  1.0000
  Se  Se3419    1.0  0.6710526314473685  0.9015151515909092  0.32365471999999995  1.0000
  Se  Se3420    1.0  0.6710526315789473  0.8863636363636366  0.0  1.0000
  In  In2281    1.0  0.6578947367105262  0.9242424243181819  0.8103706999999999  1.0000
  In  In2282    1.0  0.6710526317105263  0.9166666665909091  0.1896293  1.0000
  Se  Se3421    1.0  0.6578947367105262  0.9242424243181819  0.32365471999999995  1.0000
  Se  Se3422    1.0  0.6710526317105263  0.9166666665909091  0.6763452799999999  1.0000
  Se  Se3423    1.0  0.6578947368421052  0.9090909090909092  0.0  1.0000
  In  In2283    1.0  0.6578947369736843  0.9393939393181818  0.1896293  1.0000
  Se  Se3424    1.0  0.6578947369736843  0.9393939393181818  0.6763452799999999  1.0000
  In  In2284    1.0  0.6710526314473685  0.9469696970454545  0.8103706999999999  1.0000
  Se  Se3425    1.0  0.6710526314473685  0.9469696970454545  0.32365471999999995  1.0000
  Se  Se3426    1.0  0.6710526315789473  0.9318181818181819  0.0  1.0000
  In  In2285    1.0  0.6578947367105262  0.9696969697727275  0.8103706999999999  1.0000
  In  In2286    1.0  0.6710526317105263  0.9621212120454546  0.1896293  1.0000
  Se  Se3427    1.0  0.6578947367105262  0.9696969697727275  0.32365471999999995  1.0000
  Se  Se3428    1.0  0.6710526317105263  0.9621212120454546  0.6763452799999999  1.0000
  Se  Se3429    1.0  0.6578947368421052  0.9545454545454547  0.0  1.0000
  In  In2287    1.0  0.6578947369736843  0.9848484847727275  0.1896293  1.0000
  Se  Se3430    1.0  0.6578947369736843  0.9848484847727275  0.6763452799999999  1.0000
  In  In2288    1.0  0.6710526314473685  0.9924242425  0.8103706999999999  1.0000
  Se  Se3431    1.0  0.6710526314473685  0.9924242425  0.32365471999999995  1.0000
  Se  Se3432    1.0  0.6710526315789473  0.9772727272727274  0.0  1.0000
  In  In2289    1.0  0.6842105261842104  0.01515151522727273  0.8103706999999999  1.0000
  In  In2290    1.0  0.6973684211842105  0.0075757575  0.1896293  1.0000
  Se  Se3433    1.0  0.6842105261842104  0.01515151522727273  0.32365471999999995  1.0000
  Se  Se3434    1.0  0.6973684211842105  0.0075757575  0.6763452799999999  1.0000
  Se  Se3435    1.0  0.6842105263157894  0.0  0.0  1.0000
  In  In2291    1.0  0.6842105264473685  0.030303030227272734  0.1896293  1.0000
  Se  Se3436    1.0  0.6842105264473685  0.030303030227272734  0.6763452799999999  1.0000
  In  In2292    1.0  0.6973684209210527  0.03787878795454546  0.8103706999999999  1.0000
  Se  Se3437    1.0  0.6973684209210527  0.03787878795454546  0.32365471999999995  1.0000
  Se  Se3438    1.0  0.6973684210526315  0.022727272727272728  0.0  1.0000
  In  In2293    1.0  0.6842105261842104  0.06060606068181818  0.8103706999999999  1.0000
  In  In2294    1.0  0.6973684211842105  0.05303030295454546  0.1896293  1.0000
  Se  Se3439    1.0  0.6842105261842104  0.06060606068181818  0.32365471999999995  1.0000
  Se  Se3440    1.0  0.6973684211842105  0.05303030295454546  0.6763452799999999  1.0000
  Se  Se3441    1.0  0.6842105263157894  0.045454545454545456  0.0  1.0000
  In  In2295    1.0  0.6842105264473685  0.07575757568181819  0.1896293  1.0000
  Se  Se3442    1.0  0.6842105264473685  0.07575757568181819  0.6763452799999999  1.0000
  In  In2296    1.0  0.6973684209210527  0.08333333340909092  0.8103706999999999  1.0000
  Se  Se3443    1.0  0.6973684209210527  0.08333333340909092  0.32365471999999995  1.0000
  Se  Se3444    1.0  0.6973684210526315  0.06818181818181819  0.0  1.0000
  In  In2297    1.0  0.6842105261842104  0.10606060613636366  0.8103706999999999  1.0000
  In  In2298    1.0  0.6973684211842105  0.09848484840909091  0.1896293  1.0000
  Se  Se3445    1.0  0.6842105261842104  0.10606060613636366  0.32365471999999995  1.0000
  Se  Se3446    1.0  0.6973684211842105  0.09848484840909091  0.6763452799999999  1.0000
  Se  Se3447    1.0  0.6842105263157894  0.09090909090909091  0.0  1.0000
  In  In2299    1.0  0.6842105264473685  0.12121212113636365  0.1896293  1.0000
  Se  Se3448    1.0  0.6842105264473685  0.12121212113636365  0.6763452799999999  1.0000
  In  In2300    1.0  0.6973684209210527  0.12878787886363638  0.8103706999999999  1.0000
  Se  Se3449    1.0  0.6973684209210527  0.12878787886363638  0.32365471999999995  1.0000
  Se  Se3450    1.0  0.6973684210526315  0.11363636363636365  0.0  1.0000
  In  In2301    1.0  0.6842105261842104  0.15151515159090911  0.8103706999999999  1.0000
  In  In2302    1.0  0.6973684211842105  0.1439393938636364  0.1896293  1.0000
  Se  Se3451    1.0  0.6842105261842104  0.15151515159090911  0.32365471999999995  1.0000
  Se  Se3452    1.0  0.6973684211842105  0.1439393938636364  0.6763452799999999  1.0000
  Se  Se3453    1.0  0.6842105263157894  0.13636363636363638  0.0  1.0000
  In  In2303    1.0  0.6842105264473685  0.16666666659090912  0.1896293  1.0000
  Se  Se3454    1.0  0.6842105264473685  0.16666666659090912  0.6763452799999999  1.0000
  In  In2304    1.0  0.6973684209210527  0.17424242431818185  0.8103706999999999  1.0000
  Se  Se3455    1.0  0.6973684209210527  0.17424242431818185  0.32365471999999995  1.0000
  Se  Se3456    1.0  0.6973684210526315  0.15909090909090912  0.0  1.0000
  In  In2305    1.0  0.6842105261842104  0.19696969704545458  0.8103706999999999  1.0000
  In  In2306    1.0  0.6973684211842105  0.18939393931818185  0.1896293  1.0000
  Se  Se3457    1.0  0.6842105261842104  0.19696969704545458  0.32365471999999995  1.0000
  Se  Se3458    1.0  0.6973684211842105  0.18939393931818185  0.6763452799999999  1.0000
  Se  Se3459    1.0  0.6842105263157894  0.18181818181818182  0.0  1.0000
  In  In2307    1.0  0.6842105264473685  0.21212121204545456  0.1896293  1.0000
  Se  Se3460    1.0  0.6842105264473685  0.21212121204545456  0.6763452799999999  1.0000
  In  In2308    1.0  0.6973684209210527  0.21969696977272726  0.8103706999999999  1.0000
  Se  Se3461    1.0  0.6973684209210527  0.21969696977272726  0.32365471999999995  1.0000
  Se  Se3462    1.0  0.6973684210526315  0.20454545454545456  0.0  1.0000
  In  In2309    1.0  0.6842105261842104  0.2424242425  0.8103706999999999  1.0000
  In  In2310    1.0  0.6973684211842105  0.2348484847727273  0.1896293  1.0000
  Se  Se3463    1.0  0.6842105261842104  0.2424242425  0.32365471999999995  1.0000
  Se  Se3464    1.0  0.6973684211842105  0.2348484847727273  0.6763452799999999  1.0000
  Se  Se3465    1.0  0.6842105263157894  0.2272727272727273  0.0  1.0000
  In  In2311    1.0  0.6842105264473685  0.2575757575  0.1896293  1.0000
  Se  Se3466    1.0  0.6842105264473685  0.2575757575  0.6763452799999999  1.0000
  In  In2312    1.0  0.6973684209210527  0.2651515152272727  0.8103706999999999  1.0000
  Se  Se3467    1.0  0.6973684209210527  0.2651515152272727  0.32365471999999995  1.0000
  Se  Se3468    1.0  0.6973684210526315  0.25  0.0  1.0000
  In  In2313    1.0  0.6842105261842104  0.28787878795454547  0.8103706999999999  1.0000
  In  In2314    1.0  0.6973684211842105  0.28030303022727276  0.1896293  1.0000
  Se  Se3469    1.0  0.6842105261842104  0.28787878795454547  0.32365471999999995  1.0000
  Se  Se3470    1.0  0.6973684211842105  0.28030303022727276  0.6763452799999999  1.0000
  Se  Se3471    1.0  0.6842105263157894  0.27272727272727276  0.0  1.0000
  In  In2315    1.0  0.6842105264473685  0.3030303029545455  0.1896293  1.0000
  Se  Se3472    1.0  0.6842105264473685  0.3030303029545455  0.6763452799999999  1.0000
  In  In2316    1.0  0.6973684209210527  0.3106060606818183  0.8103706999999999  1.0000
  Se  Se3473    1.0  0.6973684209210527  0.3106060606818183  0.32365471999999995  1.0000
  Se  Se3474    1.0  0.6973684210526315  0.2954545454545455  0.0  1.0000
  In  In2317    1.0  0.6842105261842104  0.33333333340909094  0.8103706999999999  1.0000
  In  In2318    1.0  0.6973684211842105  0.32575757568181823  0.1896293  1.0000
  Se  Se3475    1.0  0.6842105261842104  0.33333333340909094  0.32365471999999995  1.0000
  Se  Se3476    1.0  0.6973684211842105  0.32575757568181823  0.6763452799999999  1.0000
  Se  Se3477    1.0  0.6842105263157894  0.31818181818181823  0.0  1.0000
  In  In2319    1.0  0.6842105264473685  0.34848484840909094  0.1896293  1.0000
  Se  Se3478    1.0  0.6842105264473685  0.34848484840909094  0.6763452799999999  1.0000
  In  In2320    1.0  0.6973684209210527  0.3560606061363637  0.8103706999999999  1.0000
  Se  Se3479    1.0  0.6973684209210527  0.3560606061363637  0.32365471999999995  1.0000
  Se  Se3480    1.0  0.6973684210526315  0.34090909090909094  0.0  1.0000
  In  In2321    1.0  0.6842105261842104  0.3787878788636364  0.8103706999999999  1.0000
  In  In2322    1.0  0.6973684211842105  0.3712121211363637  0.1896293  1.0000
  Se  Se3481    1.0  0.6842105261842104  0.3787878788636364  0.32365471999999995  1.0000
  Se  Se3482    1.0  0.6973684211842105  0.3712121211363637  0.6763452799999999  1.0000
  Se  Se3483    1.0  0.6842105263157894  0.36363636363636365  0.0  1.0000
  In  In2323    1.0  0.6842105264473685  0.3939393938636364  0.1896293  1.0000
  Se  Se3484    1.0  0.6842105264473685  0.3939393938636364  0.6763452799999999  1.0000
  In  In2324    1.0  0.6973684209210527  0.40151515159090917  0.8103706999999999  1.0000
  Se  Se3485    1.0  0.6973684209210527  0.40151515159090917  0.32365471999999995  1.0000
  Se  Se3486    1.0  0.6973684210526315  0.3863636363636364  0.0  1.0000
  In  In2325    1.0  0.6842105261842104  0.4242424243181818  0.8103706999999999  1.0000
  In  In2326    1.0  0.6973684211842105  0.4166666665909091  0.1896293  1.0000
  Se  Se3487    1.0  0.6842105261842104  0.4242424243181818  0.32365471999999995  1.0000
  Se  Se3488    1.0  0.6973684211842105  0.4166666665909091  0.6763452799999999  1.0000
  Se  Se3489    1.0  0.6842105263157894  0.4090909090909091  0.0  1.0000
  In  In2327    1.0  0.6842105264473685  0.4393939393181818  0.1896293  1.0000
  Se  Se3490    1.0  0.6842105264473685  0.4393939393181818  0.6763452799999999  1.0000
  In  In2328    1.0  0.6973684209210527  0.4469696970454546  0.8103706999999999  1.0000
  Se  Se3491    1.0  0.6973684209210527  0.4469696970454546  0.32365471999999995  1.0000
  Se  Se3492    1.0  0.6973684210526315  0.4318181818181819  0.0  1.0000
  In  In2329    1.0  0.6842105261842104  0.4696969697727273  0.8103706999999999  1.0000
  In  In2330    1.0  0.6973684211842105  0.46212121204545453  0.1896293  1.0000
  Se  Se3493    1.0  0.6842105261842104  0.4696969697727273  0.32365471999999995  1.0000
  Se  Se3494    1.0  0.6973684211842105  0.46212121204545453  0.6763452799999999  1.0000
  Se  Se3495    1.0  0.6842105263157894  0.4545454545454546  0.0  1.0000
  In  In2331    1.0  0.6842105264473685  0.4848484847727273  0.1896293  1.0000
  Se  Se3496    1.0  0.6842105264473685  0.4848484847727273  0.6763452799999999  1.0000
  In  In2332    1.0  0.6973684209210527  0.49242424250000005  0.8103706999999999  1.0000
  Se  Se3497    1.0  0.6973684209210527  0.49242424250000005  0.32365471999999995  1.0000
  Se  Se3498    1.0  0.6973684210526315  0.47727272727272735  0.0  1.0000
  In  In2333    1.0  0.6842105261842104  0.5151515152272728  0.8103706999999999  1.0000
  In  In2334    1.0  0.6973684211842105  0.5075757575  0.1896293  1.0000
  Se  Se3499    1.0  0.6842105261842104  0.5151515152272728  0.32365471999999995  1.0000
  Se  Se3500    1.0  0.6973684211842105  0.5075757575  0.6763452799999999  1.0000
  Se  Se3501    1.0  0.6842105263157894  0.5  0.0  1.0000
  In  In2335    1.0  0.6842105264473685  0.5303030302272728  0.1896293  1.0000
  Se  Se3502    1.0  0.6842105264473685  0.5303030302272728  0.6763452799999999  1.0000
  In  In2336    1.0  0.6973684209210527  0.5378787879545455  0.8103706999999999  1.0000
  Se  Se3503    1.0  0.6973684209210527  0.5378787879545455  0.32365471999999995  1.0000
  Se  Se3504    1.0  0.6973684210526315  0.5227272727272728  0.0  1.0000
  In  In2337    1.0  0.6842105261842104  0.5606060606818183  0.8103706999999999  1.0000
  In  In2338    1.0  0.6973684211842105  0.5530303029545455  0.1896293  1.0000
  Se  Se3505    1.0  0.6842105261842104  0.5606060606818183  0.32365471999999995  1.0000
  Se  Se3506    1.0  0.6973684211842105  0.5530303029545455  0.6763452799999999  1.0000
  Se  Se3507    1.0  0.6842105263157894  0.5454545454545455  0.0  1.0000
  In  In2339    1.0  0.6842105264473685  0.5757575756818183  0.1896293  1.0000
  Se  Se3508    1.0  0.6842105264473685  0.5757575756818183  0.6763452799999999  1.0000
  In  In2340    1.0  0.6973684209210527  0.583333333409091  0.8103706999999999  1.0000
  Se  Se3509    1.0  0.6973684209210527  0.583333333409091  0.32365471999999995  1.0000
  Se  Se3510    1.0  0.6973684210526315  0.5681818181818183  0.0  1.0000
  In  In2341    1.0  0.6842105261842104  0.6060606061363637  0.8103706999999999  1.0000
  In  In2342    1.0  0.6973684211842105  0.598484848409091  0.1896293  1.0000
  Se  Se3511    1.0  0.6842105261842104  0.6060606061363637  0.32365471999999995  1.0000
  Se  Se3512    1.0  0.6973684211842105  0.598484848409091  0.6763452799999999  1.0000
  Se  Se3513    1.0  0.6842105263157894  0.590909090909091  0.0  1.0000
  In  In2343    1.0  0.6842105264473685  0.6212121211363637  0.1896293  1.0000
  Se  Se3514    1.0  0.6842105264473685  0.6212121211363637  0.6763452799999999  1.0000
  In  In2344    1.0  0.6973684209210527  0.6287878788636365  0.8103706999999999  1.0000
  Se  Se3515    1.0  0.6973684209210527  0.6287878788636365  0.32365471999999995  1.0000
  Se  Se3516    1.0  0.6973684210526315  0.6136363636363638  0.0  1.0000
  In  In2345    1.0  0.6842105261842104  0.6515151515909091  0.8103706999999999  1.0000
  In  In2346    1.0  0.6973684211842105  0.6439393938636364  0.1896293  1.0000
  Se  Se3517    1.0  0.6842105261842104  0.6515151515909091  0.32365471999999995  1.0000
  Se  Se3518    1.0  0.6973684211842105  0.6439393938636364  0.6763452799999999  1.0000
  Se  Se3519    1.0  0.6842105263157894  0.6363636363636365  0.0  1.0000
  In  In2347    1.0  0.6842105264473685  0.6666666665909092  0.1896293  1.0000
  Se  Se3520    1.0  0.6842105264473685  0.6666666665909092  0.6763452799999999  1.0000
  In  In2348    1.0  0.6973684209210527  0.6742424243181819  0.8103706999999999  1.0000
  Se  Se3521    1.0  0.6973684209210527  0.6742424243181819  0.32365471999999995  1.0000
  Se  Se3522    1.0  0.6973684210526315  0.6590909090909092  0.0  1.0000
  In  In2349    1.0  0.6842105261842104  0.6969696970454546  0.8103706999999999  1.0000
  In  In2350    1.0  0.6973684211842105  0.6893939393181818  0.1896293  1.0000
  Se  Se3523    1.0  0.6842105261842104  0.6969696970454546  0.32365471999999995  1.0000
  Se  Se3524    1.0  0.6973684211842105  0.6893939393181818  0.6763452799999999  1.0000
  Se  Se3525    1.0  0.6842105263157894  0.6818181818181819  0.0  1.0000
  In  In2351    1.0  0.6842105264473685  0.7121212120454546  0.1896293  1.0000
  Se  Se3526    1.0  0.6842105264473685  0.7121212120454546  0.6763452799999999  1.0000
  In  In2352    1.0  0.6973684209210527  0.7196969697727273  0.8103706999999999  1.0000
  Se  Se3527    1.0  0.6973684209210527  0.7196969697727273  0.32365471999999995  1.0000
  Se  Se3528    1.0  0.6973684210526315  0.7045454545454547  0.0  1.0000
  In  In2353    1.0  0.6842105261842104  0.7424242425  0.8103706999999999  1.0000
  In  In2354    1.0  0.6973684211842105  0.7348484847727274  0.1896293  1.0000
  Se  Se3529    1.0  0.6842105261842104  0.7424242425  0.32365471999999995  1.0000
  Se  Se3530    1.0  0.6973684211842105  0.7348484847727274  0.6763452799999999  1.0000
  Se  Se3531    1.0  0.6842105263157894  0.7272727272727273  0.0  1.0000
  In  In2355    1.0  0.6842105264473685  0.7575757575000001  0.1896293  1.0000
  Se  Se3532    1.0  0.6842105264473685  0.7575757575000001  0.6763452799999999  1.0000
  In  In2356    1.0  0.6973684209210527  0.7651515152272729  0.8103706999999999  1.0000
  Se  Se3533    1.0  0.6973684209210527  0.7651515152272729  0.32365471999999995  1.0000
  Se  Se3534    1.0  0.6973684210526315  0.7500000000000001  0.0  1.0000
  In  In2357    1.0  0.6842105261842104  0.7878787879545455  0.8103706999999999  1.0000
  In  In2358    1.0  0.6973684211842105  0.7803030302272728  0.1896293  1.0000
  Se  Se3535    1.0  0.6842105261842104  0.7878787879545455  0.32365471999999995  1.0000
  Se  Se3536    1.0  0.6973684211842105  0.7803030302272728  0.6763452799999999  1.0000
  Se  Se3537    1.0  0.6842105263157894  0.7727272727272728  0.0  1.0000
  In  In2359    1.0  0.6842105264473685  0.8030303029545455  0.1896293  1.0000
  Se  Se3538    1.0  0.6842105264473685  0.8030303029545455  0.6763452799999999  1.0000
  In  In2360    1.0  0.6973684209210527  0.8106060606818183  0.8103706999999999  1.0000
  Se  Se3539    1.0  0.6973684209210527  0.8106060606818183  0.32365471999999995  1.0000
  Se  Se3540    1.0  0.6973684210526315  0.7954545454545455  0.0  1.0000
  In  In2361    1.0  0.6842105261842104  0.833333333409091  0.8103706999999999  1.0000
  In  In2362    1.0  0.6973684211842105  0.8257575756818182  0.1896293  1.0000
  Se  Se3541    1.0  0.6842105261842104  0.833333333409091  0.32365471999999995  1.0000
  Se  Se3542    1.0  0.6973684211842105  0.8257575756818182  0.6763452799999999  1.0000
  Se  Se3543    1.0  0.6842105263157894  0.8181818181818182  0.0  1.0000
  In  In2363    1.0  0.6842105264473685  0.848484848409091  0.1896293  1.0000
  Se  Se3544    1.0  0.6842105264473685  0.848484848409091  0.6763452799999999  1.0000
  In  In2364    1.0  0.6973684209210527  0.8560606061363636  0.8103706999999999  1.0000
  Se  Se3545    1.0  0.6973684209210527  0.8560606061363636  0.32365471999999995  1.0000
  Se  Se3546    1.0  0.6973684210526315  0.840909090909091  0.0  1.0000
  In  In2365    1.0  0.6842105261842104  0.8787878788636366  0.8103706999999999  1.0000
  In  In2366    1.0  0.6973684211842105  0.8712121211363637  0.1896293  1.0000
  Se  Se3547    1.0  0.6842105261842104  0.8787878788636366  0.32365471999999995  1.0000
  Se  Se3548    1.0  0.6973684211842105  0.8712121211363637  0.6763452799999999  1.0000
  Se  Se3549    1.0  0.6842105263157894  0.8636363636363638  0.0  1.0000
  In  In2367    1.0  0.6842105264473685  0.8939393938636365  0.1896293  1.0000
  Se  Se3550    1.0  0.6842105264473685  0.8939393938636365  0.6763452799999999  1.0000
  In  In2368    1.0  0.6973684209210527  0.9015151515909092  0.8103706999999999  1.0000
  Se  Se3551    1.0  0.6973684209210527  0.9015151515909092  0.32365471999999995  1.0000
  Se  Se3552    1.0  0.6973684210526315  0.8863636363636366  0.0  1.0000
  In  In2369    1.0  0.6842105261842104  0.9242424243181819  0.8103706999999999  1.0000
  In  In2370    1.0  0.6973684211842105  0.9166666665909091  0.1896293  1.0000
  Se  Se3553    1.0  0.6842105261842104  0.9242424243181819  0.32365471999999995  1.0000
  Se  Se3554    1.0  0.6973684211842105  0.9166666665909091  0.6763452799999999  1.0000
  Se  Se3555    1.0  0.6842105263157894  0.9090909090909092  0.0  1.0000
  In  In2371    1.0  0.6842105264473685  0.9393939393181818  0.1896293  1.0000
  Se  Se3556    1.0  0.6842105264473685  0.9393939393181818  0.6763452799999999  1.0000
  In  In2372    1.0  0.6973684209210527  0.9469696970454545  0.8103706999999999  1.0000
  Se  Se3557    1.0  0.6973684209210527  0.9469696970454545  0.32365471999999995  1.0000
  Se  Se3558    1.0  0.6973684210526315  0.9318181818181819  0.0  1.0000
  In  In2373    1.0  0.6842105261842104  0.9696969697727275  0.8103706999999999  1.0000
  In  In2374    1.0  0.6973684211842105  0.9621212120454546  0.1896293  1.0000
  Se  Se3559    1.0  0.6842105261842104  0.9696969697727275  0.32365471999999995  1.0000
  Se  Se3560    1.0  0.6973684211842105  0.9621212120454546  0.6763452799999999  1.0000
  Se  Se3561    1.0  0.6842105263157894  0.9545454545454547  0.0  1.0000
  In  In2375    1.0  0.6842105264473685  0.9848484847727275  0.1896293  1.0000
  Se  Se3562    1.0  0.6842105264473685  0.9848484847727275  0.6763452799999999  1.0000
  In  In2376    1.0  0.6973684209210527  0.9924242425  0.8103706999999999  1.0000
  Se  Se3563    1.0  0.6973684209210527  0.9924242425  0.32365471999999995  1.0000
  Se  Se3564    1.0  0.6973684210526315  0.9772727272727274  0.0  1.0000
  In  In2377    1.0  0.7105263156578946  0.01515151522727273  0.8103706999999999  1.0000
  In  In2378    1.0  0.7236842106578947  0.0075757575  0.1896293  1.0000
  Se  Se3565    1.0  0.7105263156578946  0.01515151522727273  0.32365471999999995  1.0000
  Se  Se3566    1.0  0.7236842106578947  0.0075757575  0.6763452799999999  1.0000
  Se  Se3567    1.0  0.7105263157894737  0.0  0.0  1.0000
  In  In2379    1.0  0.7105263159210526  0.030303030227272734  0.1896293  1.0000
  Se  Se3568    1.0  0.7105263159210526  0.030303030227272734  0.6763452799999999  1.0000
  In  In2380    1.0  0.7236842103947368  0.03787878795454546  0.8103706999999999  1.0000
  Se  Se3569    1.0  0.7236842103947368  0.03787878795454546  0.32365471999999995  1.0000
  Se  Se3570    1.0  0.7236842105263157  0.022727272727272728  0.0  1.0000
  In  In2381    1.0  0.7105263156578946  0.06060606068181818  0.8103706999999999  1.0000
  In  In2382    1.0  0.7236842106578947  0.05303030295454546  0.1896293  1.0000
  Se  Se3571    1.0  0.7105263156578946  0.06060606068181818  0.32365471999999995  1.0000
  Se  Se3572    1.0  0.7236842106578947  0.05303030295454546  0.6763452799999999  1.0000
  Se  Se3573    1.0  0.7105263157894737  0.045454545454545456  0.0  1.0000
  In  In2383    1.0  0.7105263159210526  0.07575757568181819  0.1896293  1.0000
  Se  Se3574    1.0  0.7105263159210526  0.07575757568181819  0.6763452799999999  1.0000
  In  In2384    1.0  0.7236842103947368  0.08333333340909092  0.8103706999999999  1.0000
  Se  Se3575    1.0  0.7236842103947368  0.08333333340909092  0.32365471999999995  1.0000
  Se  Se3576    1.0  0.7236842105263157  0.06818181818181819  0.0  1.0000
  In  In2385    1.0  0.7105263156578946  0.10606060613636366  0.8103706999999999  1.0000
  In  In2386    1.0  0.7236842106578947  0.09848484840909091  0.1896293  1.0000
  Se  Se3577    1.0  0.7105263156578946  0.10606060613636366  0.32365471999999995  1.0000
  Se  Se3578    1.0  0.7236842106578947  0.09848484840909091  0.6763452799999999  1.0000
  Se  Se3579    1.0  0.7105263157894737  0.09090909090909091  0.0  1.0000
  In  In2387    1.0  0.7105263159210526  0.12121212113636365  0.1896293  1.0000
  Se  Se3580    1.0  0.7105263159210526  0.12121212113636365  0.6763452799999999  1.0000
  In  In2388    1.0  0.7236842103947368  0.12878787886363638  0.8103706999999999  1.0000
  Se  Se3581    1.0  0.7236842103947368  0.12878787886363638  0.32365471999999995  1.0000
  Se  Se3582    1.0  0.7236842105263157  0.11363636363636365  0.0  1.0000
  In  In2389    1.0  0.7105263156578946  0.15151515159090911  0.8103706999999999  1.0000
  In  In2390    1.0  0.7236842106578947  0.1439393938636364  0.1896293  1.0000
  Se  Se3583    1.0  0.7105263156578946  0.15151515159090911  0.32365471999999995  1.0000
  Se  Se3584    1.0  0.7236842106578947  0.1439393938636364  0.6763452799999999  1.0000
  Se  Se3585    1.0  0.7105263157894737  0.13636363636363638  0.0  1.0000
  In  In2391    1.0  0.7105263159210526  0.16666666659090912  0.1896293  1.0000
  Se  Se3586    1.0  0.7105263159210526  0.16666666659090912  0.6763452799999999  1.0000
  In  In2392    1.0  0.7236842103947368  0.17424242431818185  0.8103706999999999  1.0000
  Se  Se3587    1.0  0.7236842103947368  0.17424242431818185  0.32365471999999995  1.0000
  Se  Se3588    1.0  0.7236842105263157  0.15909090909090912  0.0  1.0000
  In  In2393    1.0  0.7105263156578946  0.19696969704545458  0.8103706999999999  1.0000
  In  In2394    1.0  0.7236842106578947  0.18939393931818185  0.1896293  1.0000
  Se  Se3589    1.0  0.7105263156578946  0.19696969704545458  0.32365471999999995  1.0000
  Se  Se3590    1.0  0.7236842106578947  0.18939393931818185  0.6763452799999999  1.0000
  Se  Se3591    1.0  0.7105263157894737  0.18181818181818182  0.0  1.0000
  In  In2395    1.0  0.7105263159210526  0.21212121204545456  0.1896293  1.0000
  Se  Se3592    1.0  0.7105263159210526  0.21212121204545456  0.6763452799999999  1.0000
  In  In2396    1.0  0.7236842103947368  0.21969696977272726  0.8103706999999999  1.0000
  Se  Se3593    1.0  0.7236842103947368  0.21969696977272726  0.32365471999999995  1.0000
  Se  Se3594    1.0  0.7236842105263157  0.20454545454545456  0.0  1.0000
  In  In2397    1.0  0.7105263156578946  0.2424242425  0.8103706999999999  1.0000
  In  In2398    1.0  0.7236842106578947  0.2348484847727273  0.1896293  1.0000
  Se  Se3595    1.0  0.7105263156578946  0.2424242425  0.32365471999999995  1.0000
  Se  Se3596    1.0  0.7236842106578947  0.2348484847727273  0.6763452799999999  1.0000
  Se  Se3597    1.0  0.7105263157894737  0.2272727272727273  0.0  1.0000
  In  In2399    1.0  0.7105263159210526  0.2575757575  0.1896293  1.0000
  Se  Se3598    1.0  0.7105263159210526  0.2575757575  0.6763452799999999  1.0000
  In  In2400    1.0  0.7236842103947368  0.2651515152272727  0.8103706999999999  1.0000
  Se  Se3599    1.0  0.7236842103947368  0.2651515152272727  0.32365471999999995  1.0000
  Se  Se3600    1.0  0.7236842105263157  0.25  0.0  1.0000
  In  In2401    1.0  0.7105263156578946  0.28787878795454547  0.8103706999999999  1.0000
  In  In2402    1.0  0.7236842106578947  0.28030303022727276  0.1896293  1.0000
  Se  Se3601    1.0  0.7105263156578946  0.28787878795454547  0.32365471999999995  1.0000
  Se  Se3602    1.0  0.7236842106578947  0.28030303022727276  0.6763452799999999  1.0000
  Se  Se3603    1.0  0.7105263157894737  0.27272727272727276  0.0  1.0000
  In  In2403    1.0  0.7105263159210526  0.3030303029545455  0.1896293  1.0000
  Se  Se3604    1.0  0.7105263159210526  0.3030303029545455  0.6763452799999999  1.0000
  In  In2404    1.0  0.7236842103947368  0.3106060606818183  0.8103706999999999  1.0000
  Se  Se3605    1.0  0.7236842103947368  0.3106060606818183  0.32365471999999995  1.0000
  Se  Se3606    1.0  0.7236842105263157  0.2954545454545455  0.0  1.0000
  In  In2405    1.0  0.7105263156578946  0.33333333340909094  0.8103706999999999  1.0000
  In  In2406    1.0  0.7236842106578947  0.32575757568181823  0.1896293  1.0000
  Se  Se3607    1.0  0.7105263156578946  0.33333333340909094  0.32365471999999995  1.0000
  Se  Se3608    1.0  0.7236842106578947  0.32575757568181823  0.6763452799999999  1.0000
  Se  Se3609    1.0  0.7105263157894737  0.31818181818181823  0.0  1.0000
  In  In2407    1.0  0.7105263159210526  0.34848484840909094  0.1896293  1.0000
  Se  Se3610    1.0  0.7105263159210526  0.34848484840909094  0.6763452799999999  1.0000
  In  In2408    1.0  0.7236842103947368  0.3560606061363637  0.8103706999999999  1.0000
  Se  Se3611    1.0  0.7236842103947368  0.3560606061363637  0.32365471999999995  1.0000
  Se  Se3612    1.0  0.7236842105263157  0.34090909090909094  0.0  1.0000
  In  In2409    1.0  0.7105263156578946  0.3787878788636364  0.8103706999999999  1.0000
  In  In2410    1.0  0.7236842106578947  0.3712121211363637  0.1896293  1.0000
  Se  Se3613    1.0  0.7105263156578946  0.3787878788636364  0.32365471999999995  1.0000
  Se  Se3614    1.0  0.7236842106578947  0.3712121211363637  0.6763452799999999  1.0000
  Se  Se3615    1.0  0.7105263157894737  0.36363636363636365  0.0  1.0000
  In  In2411    1.0  0.7105263159210526  0.3939393938636364  0.1896293  1.0000
  Se  Se3616    1.0  0.7105263159210526  0.3939393938636364  0.6763452799999999  1.0000
  In  In2412    1.0  0.7236842103947368  0.40151515159090917  0.8103706999999999  1.0000
  Se  Se3617    1.0  0.7236842103947368  0.40151515159090917  0.32365471999999995  1.0000
  Se  Se3618    1.0  0.7236842105263157  0.3863636363636364  0.0  1.0000
  In  In2413    1.0  0.7105263156578946  0.4242424243181818  0.8103706999999999  1.0000
  In  In2414    1.0  0.7236842106578947  0.4166666665909091  0.1896293  1.0000
  Se  Se3619    1.0  0.7105263156578946  0.4242424243181818  0.32365471999999995  1.0000
  Se  Se3620    1.0  0.7236842106578947  0.4166666665909091  0.6763452799999999  1.0000
  Se  Se3621    1.0  0.7105263157894737  0.4090909090909091  0.0  1.0000
  In  In2415    1.0  0.7105263159210526  0.4393939393181818  0.1896293  1.0000
  Se  Se3622    1.0  0.7105263159210526  0.4393939393181818  0.6763452799999999  1.0000
  In  In2416    1.0  0.7236842103947368  0.4469696970454546  0.8103706999999999  1.0000
  Se  Se3623    1.0  0.7236842103947368  0.4469696970454546  0.32365471999999995  1.0000
  Se  Se3624    1.0  0.7236842105263157  0.4318181818181819  0.0  1.0000
  In  In2417    1.0  0.7105263156578946  0.4696969697727273  0.8103706999999999  1.0000
  In  In2418    1.0  0.7236842106578947  0.46212121204545453  0.1896293  1.0000
  Se  Se3625    1.0  0.7105263156578946  0.4696969697727273  0.32365471999999995  1.0000
  Se  Se3626    1.0  0.7236842106578947  0.46212121204545453  0.6763452799999999  1.0000
  Se  Se3627    1.0  0.7105263157894737  0.4545454545454546  0.0  1.0000
  In  In2419    1.0  0.7105263159210526  0.4848484847727273  0.1896293  1.0000
  Se  Se3628    1.0  0.7105263159210526  0.4848484847727273  0.6763452799999999  1.0000
  In  In2420    1.0  0.7236842103947368  0.49242424250000005  0.8103706999999999  1.0000
  Se  Se3629    1.0  0.7236842103947368  0.49242424250000005  0.32365471999999995  1.0000
  Se  Se3630    1.0  0.7236842105263157  0.47727272727272735  0.0  1.0000
  In  In2421    1.0  0.7105263156578946  0.5151515152272728  0.8103706999999999  1.0000
  In  In2422    1.0  0.7236842106578947  0.5075757575  0.1896293  1.0000
  Se  Se3631    1.0  0.7105263156578946  0.5151515152272728  0.32365471999999995  1.0000
  Se  Se3632    1.0  0.7236842106578947  0.5075757575  0.6763452799999999  1.0000
  Se  Se3633    1.0  0.7105263157894737  0.5  0.0  1.0000
  In  In2423    1.0  0.7105263159210526  0.5303030302272728  0.1896293  1.0000
  Se  Se3634    1.0  0.7105263159210526  0.5303030302272728  0.6763452799999999  1.0000
  In  In2424    1.0  0.7236842103947368  0.5378787879545455  0.8103706999999999  1.0000
  Se  Se3635    1.0  0.7236842103947368  0.5378787879545455  0.32365471999999995  1.0000
  Se  Se3636    1.0  0.7236842105263157  0.5227272727272728  0.0  1.0000
  In  In2425    1.0  0.7105263156578946  0.5606060606818183  0.8103706999999999  1.0000
  In  In2426    1.0  0.7236842106578947  0.5530303029545455  0.1896293  1.0000
  Se  Se3637    1.0  0.7105263156578946  0.5606060606818183  0.32365471999999995  1.0000
  Se  Se3638    1.0  0.7236842106578947  0.5530303029545455  0.6763452799999999  1.0000
  Se  Se3639    1.0  0.7105263157894737  0.5454545454545455  0.0  1.0000
  In  In2427    1.0  0.7105263159210526  0.5757575756818183  0.1896293  1.0000
  Se  Se3640    1.0  0.7105263159210526  0.5757575756818183  0.6763452799999999  1.0000
  In  In2428    1.0  0.7236842103947368  0.583333333409091  0.8103706999999999  1.0000
  Se  Se3641    1.0  0.7236842103947368  0.583333333409091  0.32365471999999995  1.0000
  Se  Se3642    1.0  0.7236842105263157  0.5681818181818183  0.0  1.0000
  In  In2429    1.0  0.7105263156578946  0.6060606061363637  0.8103706999999999  1.0000
  In  In2430    1.0  0.7236842106578947  0.598484848409091  0.1896293  1.0000
  Se  Se3643    1.0  0.7105263156578946  0.6060606061363637  0.32365471999999995  1.0000
  Se  Se3644    1.0  0.7236842106578947  0.598484848409091  0.6763452799999999  1.0000
  Se  Se3645    1.0  0.7105263157894737  0.590909090909091  0.0  1.0000
  In  In2431    1.0  0.7105263159210526  0.6212121211363637  0.1896293  1.0000
  Se  Se3646    1.0  0.7105263159210526  0.6212121211363637  0.6763452799999999  1.0000
  In  In2432    1.0  0.7236842103947368  0.6287878788636365  0.8103706999999999  1.0000
  Se  Se3647    1.0  0.7236842103947368  0.6287878788636365  0.32365471999999995  1.0000
  Se  Se3648    1.0  0.7236842105263157  0.6136363636363638  0.0  1.0000
  In  In2433    1.0  0.7105263156578946  0.6515151515909091  0.8103706999999999  1.0000
  In  In2434    1.0  0.7236842106578947  0.6439393938636364  0.1896293  1.0000
  Se  Se3649    1.0  0.7105263156578946  0.6515151515909091  0.32365471999999995  1.0000
  Se  Se3650    1.0  0.7236842106578947  0.6439393938636364  0.6763452799999999  1.0000
  Se  Se3651    1.0  0.7105263157894737  0.6363636363636365  0.0  1.0000
  In  In2435    1.0  0.7105263159210526  0.6666666665909092  0.1896293  1.0000
  Se  Se3652    1.0  0.7105263159210526  0.6666666665909092  0.6763452799999999  1.0000
  In  In2436    1.0  0.7236842103947368  0.6742424243181819  0.8103706999999999  1.0000
  Se  Se3653    1.0  0.7236842103947368  0.6742424243181819  0.32365471999999995  1.0000
  Se  Se3654    1.0  0.7236842105263157  0.6590909090909092  0.0  1.0000
  In  In2437    1.0  0.7105263156578946  0.6969696970454546  0.8103706999999999  1.0000
  In  In2438    1.0  0.7236842106578947  0.6893939393181818  0.1896293  1.0000
  Se  Se3655    1.0  0.7105263156578946  0.6969696970454546  0.32365471999999995  1.0000
  Se  Se3656    1.0  0.7236842106578947  0.6893939393181818  0.6763452799999999  1.0000
  Se  Se3657    1.0  0.7105263157894737  0.6818181818181819  0.0  1.0000
  In  In2439    1.0  0.7105263159210526  0.7121212120454546  0.1896293  1.0000
  Se  Se3658    1.0  0.7105263159210526  0.7121212120454546  0.6763452799999999  1.0000
  In  In2440    1.0  0.7236842103947368  0.7196969697727273  0.8103706999999999  1.0000
  Se  Se3659    1.0  0.7236842103947368  0.7196969697727273  0.32365471999999995  1.0000
  Se  Se3660    1.0  0.7236842105263157  0.7045454545454547  0.0  1.0000
  In  In2441    1.0  0.7105263156578946  0.7424242425  0.8103706999999999  1.0000
  In  In2442    1.0  0.7236842106578947  0.7348484847727274  0.1896293  1.0000
  Se  Se3661    1.0  0.7105263156578946  0.7424242425  0.32365471999999995  1.0000
  Se  Se3662    1.0  0.7236842106578947  0.7348484847727274  0.6763452799999999  1.0000
  Se  Se3663    1.0  0.7105263157894737  0.7272727272727273  0.0  1.0000
  In  In2443    1.0  0.7105263159210526  0.7575757575000001  0.1896293  1.0000
  Se  Se3664    1.0  0.7105263159210526  0.7575757575000001  0.6763452799999999  1.0000
  In  In2444    1.0  0.7236842103947368  0.7651515152272729  0.8103706999999999  1.0000
  Se  Se3665    1.0  0.7236842103947368  0.7651515152272729  0.32365471999999995  1.0000
  Se  Se3666    1.0  0.7236842105263157  0.7500000000000001  0.0  1.0000
  In  In2445    1.0  0.7105263156578946  0.7878787879545455  0.8103706999999999  1.0000
  In  In2446    1.0  0.7236842106578947  0.7803030302272728  0.1896293  1.0000
  Se  Se3667    1.0  0.7105263156578946  0.7878787879545455  0.32365471999999995  1.0000
  Se  Se3668    1.0  0.7236842106578947  0.7803030302272728  0.6763452799999999  1.0000
  Se  Se3669    1.0  0.7105263157894737  0.7727272727272728  0.0  1.0000
  In  In2447    1.0  0.7105263159210526  0.8030303029545455  0.1896293  1.0000
  Se  Se3670    1.0  0.7105263159210526  0.8030303029545455  0.6763452799999999  1.0000
  In  In2448    1.0  0.7236842103947368  0.8106060606818183  0.8103706999999999  1.0000
  Se  Se3671    1.0  0.7236842103947368  0.8106060606818183  0.32365471999999995  1.0000
  Se  Se3672    1.0  0.7236842105263157  0.7954545454545455  0.0  1.0000
  In  In2449    1.0  0.7105263156578946  0.833333333409091  0.8103706999999999  1.0000
  In  In2450    1.0  0.7236842106578947  0.8257575756818182  0.1896293  1.0000
  Se  Se3673    1.0  0.7105263156578946  0.833333333409091  0.32365471999999995  1.0000
  Se  Se3674    1.0  0.7236842106578947  0.8257575756818182  0.6763452799999999  1.0000
  Se  Se3675    1.0  0.7105263157894737  0.8181818181818182  0.0  1.0000
  In  In2451    1.0  0.7105263159210526  0.848484848409091  0.1896293  1.0000
  Se  Se3676    1.0  0.7105263159210526  0.848484848409091  0.6763452799999999  1.0000
  In  In2452    1.0  0.7236842103947368  0.8560606061363636  0.8103706999999999  1.0000
  Se  Se3677    1.0  0.7236842103947368  0.8560606061363636  0.32365471999999995  1.0000
  Se  Se3678    1.0  0.7236842105263157  0.840909090909091  0.0  1.0000
  In  In2453    1.0  0.7105263156578946  0.8787878788636366  0.8103706999999999  1.0000
  In  In2454    1.0  0.7236842106578947  0.8712121211363637  0.1896293  1.0000
  Se  Se3679    1.0  0.7105263156578946  0.8787878788636366  0.32365471999999995  1.0000
  Se  Se3680    1.0  0.7236842106578947  0.8712121211363637  0.6763452799999999  1.0000
  Se  Se3681    1.0  0.7105263157894737  0.8636363636363638  0.0  1.0000
  In  In2455    1.0  0.7105263159210526  0.8939393938636365  0.1896293  1.0000
  Se  Se3682    1.0  0.7105263159210526  0.8939393938636365  0.6763452799999999  1.0000
  In  In2456    1.0  0.7236842103947368  0.9015151515909092  0.8103706999999999  1.0000
  Se  Se3683    1.0  0.7236842103947368  0.9015151515909092  0.32365471999999995  1.0000
  Se  Se3684    1.0  0.7236842105263157  0.8863636363636366  0.0  1.0000
  In  In2457    1.0  0.7105263156578946  0.9242424243181819  0.8103706999999999  1.0000
  In  In2458    1.0  0.7236842106578947  0.9166666665909091  0.1896293  1.0000
  Se  Se3685    1.0  0.7105263156578946  0.9242424243181819  0.32365471999999995  1.0000
  Se  Se3686    1.0  0.7236842106578947  0.9166666665909091  0.6763452799999999  1.0000
  Se  Se3687    1.0  0.7105263157894737  0.9090909090909092  0.0  1.0000
  In  In2459    1.0  0.7105263159210526  0.9393939393181818  0.1896293  1.0000
  Se  Se3688    1.0  0.7105263159210526  0.9393939393181818  0.6763452799999999  1.0000
  In  In2460    1.0  0.7236842103947368  0.9469696970454545  0.8103706999999999  1.0000
  Se  Se3689    1.0  0.7236842103947368  0.9469696970454545  0.32365471999999995  1.0000
  Se  Se3690    1.0  0.7236842105263157  0.9318181818181819  0.0  1.0000
  In  In2461    1.0  0.7105263156578946  0.9696969697727275  0.8103706999999999  1.0000
  In  In2462    1.0  0.7236842106578947  0.9621212120454546  0.1896293  1.0000
  Se  Se3691    1.0  0.7105263156578946  0.9696969697727275  0.32365471999999995  1.0000
  Se  Se3692    1.0  0.7236842106578947  0.9621212120454546  0.6763452799999999  1.0000
  Se  Se3693    1.0  0.7105263157894737  0.9545454545454547  0.0  1.0000
  In  In2463    1.0  0.7105263159210526  0.9848484847727275  0.1896293  1.0000
  Se  Se3694    1.0  0.7105263159210526  0.9848484847727275  0.6763452799999999  1.0000
  In  In2464    1.0  0.7236842103947368  0.9924242425  0.8103706999999999  1.0000
  Se  Se3695    1.0  0.7236842103947368  0.9924242425  0.32365471999999995  1.0000
  Se  Se3696    1.0  0.7236842105263157  0.9772727272727274  0.0  1.0000
  In  In2465    1.0  0.7368421051315788  0.01515151522727273  0.8103706999999999  1.0000
  In  In2466    1.0  0.7500000001315789  0.0075757575  0.1896293  1.0000
  Se  Se3697    1.0  0.7368421051315788  0.01515151522727273  0.32365471999999995  1.0000
  Se  Se3698    1.0  0.7500000001315789  0.0075757575  0.6763452799999999  1.0000
  Se  Se3699    1.0  0.7368421052631579  0.0  0.0  1.0000
  In  In2467    1.0  0.7368421053947368  0.030303030227272734  0.1896293  1.0000
  Se  Se3700    1.0  0.7368421053947368  0.030303030227272734  0.6763452799999999  1.0000
  In  In2468    1.0  0.749999999868421  0.03787878795454546  0.8103706999999999  1.0000
  Se  Se3701    1.0  0.749999999868421  0.03787878795454546  0.32365471999999995  1.0000
  Se  Se3702    1.0  0.7499999999999999  0.022727272727272728  0.0  1.0000
  In  In2469    1.0  0.7368421051315788  0.06060606068181818  0.8103706999999999  1.0000
  In  In2470    1.0  0.7500000001315789  0.05303030295454546  0.1896293  1.0000
  Se  Se3703    1.0  0.7368421051315788  0.06060606068181818  0.32365471999999995  1.0000
  Se  Se3704    1.0  0.7500000001315789  0.05303030295454546  0.6763452799999999  1.0000
  Se  Se3705    1.0  0.7368421052631579  0.045454545454545456  0.0  1.0000
  In  In2471    1.0  0.7368421053947368  0.07575757568181819  0.1896293  1.0000
  Se  Se3706    1.0  0.7368421053947368  0.07575757568181819  0.6763452799999999  1.0000
  In  In2472    1.0  0.749999999868421  0.08333333340909092  0.8103706999999999  1.0000
  Se  Se3707    1.0  0.749999999868421  0.08333333340909092  0.32365471999999995  1.0000
  Se  Se3708    1.0  0.7499999999999999  0.06818181818181819  0.0  1.0000
  In  In2473    1.0  0.7368421051315788  0.10606060613636366  0.8103706999999999  1.0000
  In  In2474    1.0  0.7500000001315789  0.09848484840909091  0.1896293  1.0000
  Se  Se3709    1.0  0.7368421051315788  0.10606060613636366  0.32365471999999995  1.0000
  Se  Se3710    1.0  0.7500000001315789  0.09848484840909091  0.6763452799999999  1.0000
  Se  Se3711    1.0  0.7368421052631579  0.09090909090909091  0.0  1.0000
  In  In2475    1.0  0.7368421053947368  0.12121212113636365  0.1896293  1.0000
  Se  Se3712    1.0  0.7368421053947368  0.12121212113636365  0.6763452799999999  1.0000
  In  In2476    1.0  0.749999999868421  0.12878787886363638  0.8103706999999999  1.0000
  Se  Se3713    1.0  0.749999999868421  0.12878787886363638  0.32365471999999995  1.0000
  Se  Se3714    1.0  0.7499999999999999  0.11363636363636365  0.0  1.0000
  In  In2477    1.0  0.7368421051315788  0.15151515159090911  0.8103706999999999  1.0000
  In  In2478    1.0  0.7500000001315789  0.1439393938636364  0.1896293  1.0000
  Se  Se3715    1.0  0.7368421051315788  0.15151515159090911  0.32365471999999995  1.0000
  Se  Se3716    1.0  0.7500000001315789  0.1439393938636364  0.6763452799999999  1.0000
  Se  Se3717    1.0  0.7368421052631579  0.13636363636363638  0.0  1.0000
  In  In2479    1.0  0.7368421053947368  0.16666666659090912  0.1896293  1.0000
  Se  Se3718    1.0  0.7368421053947368  0.16666666659090912  0.6763452799999999  1.0000
  In  In2480    1.0  0.749999999868421  0.17424242431818185  0.8103706999999999  1.0000
  Se  Se3719    1.0  0.749999999868421  0.17424242431818185  0.32365471999999995  1.0000
  Se  Se3720    1.0  0.7499999999999999  0.15909090909090912  0.0  1.0000
  In  In2481    1.0  0.7368421051315788  0.19696969704545458  0.8103706999999999  1.0000
  In  In2482    1.0  0.7500000001315789  0.18939393931818185  0.1896293  1.0000
  Se  Se3721    1.0  0.7368421051315788  0.19696969704545458  0.32365471999999995  1.0000
  Se  Se3722    1.0  0.7500000001315789  0.18939393931818185  0.6763452799999999  1.0000
  Se  Se3723    1.0  0.7368421052631579  0.18181818181818182  0.0  1.0000
  In  In2483    1.0  0.7368421053947368  0.21212121204545456  0.1896293  1.0000
  Se  Se3724    1.0  0.7368421053947368  0.21212121204545456  0.6763452799999999  1.0000
  In  In2484    1.0  0.749999999868421  0.21969696977272726  0.8103706999999999  1.0000
  Se  Se3725    1.0  0.749999999868421  0.21969696977272726  0.32365471999999995  1.0000
  Se  Se3726    1.0  0.7499999999999999  0.20454545454545456  0.0  1.0000
  In  In2485    1.0  0.7368421051315788  0.2424242425  0.8103706999999999  1.0000
  In  In2486    1.0  0.7500000001315789  0.2348484847727273  0.1896293  1.0000
  Se  Se3727    1.0  0.7368421051315788  0.2424242425  0.32365471999999995  1.0000
  Se  Se3728    1.0  0.7500000001315789  0.2348484847727273  0.6763452799999999  1.0000
  Se  Se3729    1.0  0.7368421052631579  0.2272727272727273  0.0  1.0000
  In  In2487    1.0  0.7368421053947368  0.2575757575  0.1896293  1.0000
  Se  Se3730    1.0  0.7368421053947368  0.2575757575  0.6763452799999999  1.0000
  In  In2488    1.0  0.749999999868421  0.2651515152272727  0.8103706999999999  1.0000
  Se  Se3731    1.0  0.749999999868421  0.2651515152272727  0.32365471999999995  1.0000
  Se  Se3732    1.0  0.7499999999999999  0.25  0.0  1.0000
  In  In2489    1.0  0.7368421051315788  0.28787878795454547  0.8103706999999999  1.0000
  In  In2490    1.0  0.7500000001315789  0.28030303022727276  0.1896293  1.0000
  Se  Se3733    1.0  0.7368421051315788  0.28787878795454547  0.32365471999999995  1.0000
  Se  Se3734    1.0  0.7500000001315789  0.28030303022727276  0.6763452799999999  1.0000
  Se  Se3735    1.0  0.7368421052631579  0.27272727272727276  0.0  1.0000
  In  In2491    1.0  0.7368421053947368  0.3030303029545455  0.1896293  1.0000
  Se  Se3736    1.0  0.7368421053947368  0.3030303029545455  0.6763452799999999  1.0000
  In  In2492    1.0  0.749999999868421  0.3106060606818183  0.8103706999999999  1.0000
  Se  Se3737    1.0  0.749999999868421  0.3106060606818183  0.32365471999999995  1.0000
  Se  Se3738    1.0  0.7499999999999999  0.2954545454545455  0.0  1.0000
  In  In2493    1.0  0.7368421051315788  0.33333333340909094  0.8103706999999999  1.0000
  In  In2494    1.0  0.7500000001315789  0.32575757568181823  0.1896293  1.0000
  Se  Se3739    1.0  0.7368421051315788  0.33333333340909094  0.32365471999999995  1.0000
  Se  Se3740    1.0  0.7500000001315789  0.32575757568181823  0.6763452799999999  1.0000
  Se  Se3741    1.0  0.7368421052631579  0.31818181818181823  0.0  1.0000
  In  In2495    1.0  0.7368421053947368  0.34848484840909094  0.1896293  1.0000
  Se  Se3742    1.0  0.7368421053947368  0.34848484840909094  0.6763452799999999  1.0000
  In  In2496    1.0  0.749999999868421  0.3560606061363637  0.8103706999999999  1.0000
  Se  Se3743    1.0  0.749999999868421  0.3560606061363637  0.32365471999999995  1.0000
  Se  Se3744    1.0  0.7499999999999999  0.34090909090909094  0.0  1.0000
  In  In2497    1.0  0.7368421051315788  0.3787878788636364  0.8103706999999999  1.0000
  In  In2498    1.0  0.7500000001315789  0.3712121211363637  0.1896293  1.0000
  Se  Se3745    1.0  0.7368421051315788  0.3787878788636364  0.32365471999999995  1.0000
  Se  Se3746    1.0  0.7500000001315789  0.3712121211363637  0.6763452799999999  1.0000
  Se  Se3747    1.0  0.7368421052631579  0.36363636363636365  0.0  1.0000
  In  In2499    1.0  0.7368421053947368  0.3939393938636364  0.1896293  1.0000
  Se  Se3748    1.0  0.7368421053947368  0.3939393938636364  0.6763452799999999  1.0000
  In  In2500    1.0  0.749999999868421  0.40151515159090917  0.8103706999999999  1.0000
  Se  Se3749    1.0  0.749999999868421  0.40151515159090917  0.32365471999999995  1.0000
  Se  Se3750    1.0  0.7499999999999999  0.3863636363636364  0.0  1.0000
  In  In2501    1.0  0.7368421051315788  0.4242424243181818  0.8103706999999999  1.0000
  In  In2502    1.0  0.7500000001315789  0.4166666665909091  0.1896293  1.0000
  Se  Se3751    1.0  0.7368421051315788  0.4242424243181818  0.32365471999999995  1.0000
  Se  Se3752    1.0  0.7500000001315789  0.4166666665909091  0.6763452799999999  1.0000
  Se  Se3753    1.0  0.7368421052631579  0.4090909090909091  0.0  1.0000
  In  In2503    1.0  0.7368421053947368  0.4393939393181818  0.1896293  1.0000
  Se  Se3754    1.0  0.7368421053947368  0.4393939393181818  0.6763452799999999  1.0000
  In  In2504    1.0  0.749999999868421  0.4469696970454546  0.8103706999999999  1.0000
  Se  Se3755    1.0  0.749999999868421  0.4469696970454546  0.32365471999999995  1.0000
  Se  Se3756    1.0  0.7499999999999999  0.4318181818181819  0.0  1.0000
  In  In2505    1.0  0.7368421051315788  0.4696969697727273  0.8103706999999999  1.0000
  In  In2506    1.0  0.7500000001315789  0.46212121204545453  0.1896293  1.0000
  Se  Se3757    1.0  0.7368421051315788  0.4696969697727273  0.32365471999999995  1.0000
  Se  Se3758    1.0  0.7500000001315789  0.46212121204545453  0.6763452799999999  1.0000
  Se  Se3759    1.0  0.7368421052631579  0.4545454545454546  0.0  1.0000
  In  In2507    1.0  0.7368421053947368  0.4848484847727273  0.1896293  1.0000
  Se  Se3760    1.0  0.7368421053947368  0.4848484847727273  0.6763452799999999  1.0000
  In  In2508    1.0  0.749999999868421  0.49242424250000005  0.8103706999999999  1.0000
  Se  Se3761    1.0  0.749999999868421  0.49242424250000005  0.32365471999999995  1.0000
  Se  Se3762    1.0  0.7499999999999999  0.47727272727272735  0.0  1.0000
  In  In2509    1.0  0.7368421051315788  0.5151515152272728  0.8103706999999999  1.0000
  In  In2510    1.0  0.7500000001315789  0.5075757575  0.1896293  1.0000
  Se  Se3763    1.0  0.7368421051315788  0.5151515152272728  0.32365471999999995  1.0000
  Se  Se3764    1.0  0.7500000001315789  0.5075757575  0.6763452799999999  1.0000
  Se  Se3765    1.0  0.7368421052631579  0.5  0.0  1.0000
  In  In2511    1.0  0.7368421053947368  0.5303030302272728  0.1896293  1.0000
  Se  Se3766    1.0  0.7368421053947368  0.5303030302272728  0.6763452799999999  1.0000
  In  In2512    1.0  0.749999999868421  0.5378787879545455  0.8103706999999999  1.0000
  Se  Se3767    1.0  0.749999999868421  0.5378787879545455  0.32365471999999995  1.0000
  Se  Se3768    1.0  0.7499999999999999  0.5227272727272728  0.0  1.0000
  In  In2513    1.0  0.7368421051315788  0.5606060606818183  0.8103706999999999  1.0000
  In  In2514    1.0  0.7500000001315789  0.5530303029545455  0.1896293  1.0000
  Se  Se3769    1.0  0.7368421051315788  0.5606060606818183  0.32365471999999995  1.0000
  Se  Se3770    1.0  0.7500000001315789  0.5530303029545455  0.6763452799999999  1.0000
  Se  Se3771    1.0  0.7368421052631579  0.5454545454545455  0.0  1.0000
  In  In2515    1.0  0.7368421053947368  0.5757575756818183  0.1896293  1.0000
  Se  Se3772    1.0  0.7368421053947368  0.5757575756818183  0.6763452799999999  1.0000
  In  In2516    1.0  0.749999999868421  0.583333333409091  0.8103706999999999  1.0000
  Se  Se3773    1.0  0.749999999868421  0.583333333409091  0.32365471999999995  1.0000
  Se  Se3774    1.0  0.7499999999999999  0.5681818181818183  0.0  1.0000
  In  In2517    1.0  0.7368421051315788  0.6060606061363637  0.8103706999999999  1.0000
  In  In2518    1.0  0.7500000001315789  0.598484848409091  0.1896293  1.0000
  Se  Se3775    1.0  0.7368421051315788  0.6060606061363637  0.32365471999999995  1.0000
  Se  Se3776    1.0  0.7500000001315789  0.598484848409091  0.6763452799999999  1.0000
  Se  Se3777    1.0  0.7368421052631579  0.590909090909091  0.0  1.0000
  In  In2519    1.0  0.7368421053947368  0.6212121211363637  0.1896293  1.0000
  Se  Se3778    1.0  0.7368421053947368  0.6212121211363637  0.6763452799999999  1.0000
  In  In2520    1.0  0.749999999868421  0.6287878788636365  0.8103706999999999  1.0000
  Se  Se3779    1.0  0.749999999868421  0.6287878788636365  0.32365471999999995  1.0000
  Se  Se3780    1.0  0.7499999999999999  0.6136363636363638  0.0  1.0000
  In  In2521    1.0  0.7368421051315788  0.6515151515909091  0.8103706999999999  1.0000
  In  In2522    1.0  0.7500000001315789  0.6439393938636364  0.1896293  1.0000
  Se  Se3781    1.0  0.7368421051315788  0.6515151515909091  0.32365471999999995  1.0000
  Se  Se3782    1.0  0.7500000001315789  0.6439393938636364  0.6763452799999999  1.0000
  Se  Se3783    1.0  0.7368421052631579  0.6363636363636365  0.0  1.0000
  In  In2523    1.0  0.7368421053947368  0.6666666665909092  0.1896293  1.0000
  Se  Se3784    1.0  0.7368421053947368  0.6666666665909092  0.6763452799999999  1.0000
  In  In2524    1.0  0.749999999868421  0.6742424243181819  0.8103706999999999  1.0000
  Se  Se3785    1.0  0.749999999868421  0.6742424243181819  0.32365471999999995  1.0000
  Se  Se3786    1.0  0.7499999999999999  0.6590909090909092  0.0  1.0000
  In  In2525    1.0  0.7368421051315788  0.6969696970454546  0.8103706999999999  1.0000
  In  In2526    1.0  0.7500000001315789  0.6893939393181818  0.1896293  1.0000
  Se  Se3787    1.0  0.7368421051315788  0.6969696970454546  0.32365471999999995  1.0000
  Se  Se3788    1.0  0.7500000001315789  0.6893939393181818  0.6763452799999999  1.0000
  Se  Se3789    1.0  0.7368421052631579  0.6818181818181819  0.0  1.0000
  In  In2527    1.0  0.7368421053947368  0.7121212120454546  0.1896293  1.0000
  Se  Se3790    1.0  0.7368421053947368  0.7121212120454546  0.6763452799999999  1.0000
  In  In2528    1.0  0.749999999868421  0.7196969697727273  0.8103706999999999  1.0000
  Se  Se3791    1.0  0.749999999868421  0.7196969697727273  0.32365471999999995  1.0000
  Se  Se3792    1.0  0.7499999999999999  0.7045454545454547  0.0  1.0000
  In  In2529    1.0  0.7368421051315788  0.7424242425  0.8103706999999999  1.0000
  In  In2530    1.0  0.7500000001315789  0.7348484847727274  0.1896293  1.0000
  Se  Se3793    1.0  0.7368421051315788  0.7424242425  0.32365471999999995  1.0000
  Se  Se3794    1.0  0.7500000001315789  0.7348484847727274  0.6763452799999999  1.0000
  Se  Se3795    1.0  0.7368421052631579  0.7272727272727273  0.0  1.0000
  In  In2531    1.0  0.7368421053947368  0.7575757575000001  0.1896293  1.0000
  Se  Se3796    1.0  0.7368421053947368  0.7575757575000001  0.6763452799999999  1.0000
  In  In2532    1.0  0.749999999868421  0.7651515152272729  0.8103706999999999  1.0000
  Se  Se3797    1.0  0.749999999868421  0.7651515152272729  0.32365471999999995  1.0000
  Se  Se3798    1.0  0.7499999999999999  0.7500000000000001  0.0  1.0000
  In  In2533    1.0  0.7368421051315788  0.7878787879545455  0.8103706999999999  1.0000
  In  In2534    1.0  0.7500000001315789  0.7803030302272728  0.1896293  1.0000
  Se  Se3799    1.0  0.7368421051315788  0.7878787879545455  0.32365471999999995  1.0000
  Se  Se3800    1.0  0.7500000001315789  0.7803030302272728  0.6763452799999999  1.0000
  Se  Se3801    1.0  0.7368421052631579  0.7727272727272728  0.0  1.0000
  In  In2535    1.0  0.7368421053947368  0.8030303029545455  0.1896293  1.0000
  Se  Se3802    1.0  0.7368421053947368  0.8030303029545455  0.6763452799999999  1.0000
  In  In2536    1.0  0.749999999868421  0.8106060606818183  0.8103706999999999  1.0000
  Se  Se3803    1.0  0.749999999868421  0.8106060606818183  0.32365471999999995  1.0000
  Se  Se3804    1.0  0.7499999999999999  0.7954545454545455  0.0  1.0000
  In  In2537    1.0  0.7368421051315788  0.833333333409091  0.8103706999999999  1.0000
  In  In2538    1.0  0.7500000001315789  0.8257575756818182  0.1896293  1.0000
  Se  Se3805    1.0  0.7368421051315788  0.833333333409091  0.32365471999999995  1.0000
  Se  Se3806    1.0  0.7500000001315789  0.8257575756818182  0.6763452799999999  1.0000
  Se  Se3807    1.0  0.7368421052631579  0.8181818181818182  0.0  1.0000
  In  In2539    1.0  0.7368421053947368  0.848484848409091  0.1896293  1.0000
  Se  Se3808    1.0  0.7368421053947368  0.848484848409091  0.6763452799999999  1.0000
  In  In2540    1.0  0.749999999868421  0.8560606061363636  0.8103706999999999  1.0000
  Se  Se3809    1.0  0.749999999868421  0.8560606061363636  0.32365471999999995  1.0000
  Se  Se3810    1.0  0.7499999999999999  0.840909090909091  0.0  1.0000
  In  In2541    1.0  0.7368421051315788  0.8787878788636366  0.8103706999999999  1.0000
  In  In2542    1.0  0.7500000001315789  0.8712121211363637  0.1896293  1.0000
  Se  Se3811    1.0  0.7368421051315788  0.8787878788636366  0.32365471999999995  1.0000
  Se  Se3812    1.0  0.7500000001315789  0.8712121211363637  0.6763452799999999  1.0000
  Se  Se3813    1.0  0.7368421052631579  0.8636363636363638  0.0  1.0000
  In  In2543    1.0  0.7368421053947368  0.8939393938636365  0.1896293  1.0000
  Se  Se3814    1.0  0.7368421053947368  0.8939393938636365  0.6763452799999999  1.0000
  In  In2544    1.0  0.749999999868421  0.9015151515909092  0.8103706999999999  1.0000
  Se  Se3815    1.0  0.749999999868421  0.9015151515909092  0.32365471999999995  1.0000
  Se  Se3816    1.0  0.7499999999999999  0.8863636363636366  0.0  1.0000
  In  In2545    1.0  0.7368421051315788  0.9242424243181819  0.8103706999999999  1.0000
  In  In2546    1.0  0.7500000001315789  0.9166666665909091  0.1896293  1.0000
  Se  Se3817    1.0  0.7368421051315788  0.9242424243181819  0.32365471999999995  1.0000
  Se  Se3818    1.0  0.7500000001315789  0.9166666665909091  0.6763452799999999  1.0000
  Se  Se3819    1.0  0.7368421052631579  0.9090909090909092  0.0  1.0000
  In  In2547    1.0  0.7368421053947368  0.9393939393181818  0.1896293  1.0000
  Se  Se3820    1.0  0.7368421053947368  0.9393939393181818  0.6763452799999999  1.0000
  In  In2548    1.0  0.749999999868421  0.9469696970454545  0.8103706999999999  1.0000
  Se  Se3821    1.0  0.749999999868421  0.9469696970454545  0.32365471999999995  1.0000
  Se  Se3822    1.0  0.7499999999999999  0.9318181818181819  0.0  1.0000
  In  In2549    1.0  0.7368421051315788  0.9696969697727275  0.8103706999999999  1.0000
  In  In2550    1.0  0.7500000001315789  0.9621212120454546  0.1896293  1.0000
  Se  Se3823    1.0  0.7368421051315788  0.9696969697727275  0.32365471999999995  1.0000
  Se  Se3824    1.0  0.7500000001315789  0.9621212120454546  0.6763452799999999  1.0000
  Se  Se3825    1.0  0.7368421052631579  0.9545454545454547  0.0  1.0000
  In  In2551    1.0  0.7368421053947368  0.9848484847727275  0.1896293  1.0000
  Se  Se3826    1.0  0.7368421053947368  0.9848484847727275  0.6763452799999999  1.0000
  In  In2552    1.0  0.749999999868421  0.9924242425  0.8103706999999999  1.0000
  Se  Se3827    1.0  0.749999999868421  0.9924242425  0.32365471999999995  1.0000
  Se  Se3828    1.0  0.7499999999999999  0.9772727272727274  0.0  1.0000
  In  In2553    1.0  0.7631578946052631  0.01515151522727273  0.8103706999999999  1.0000
  In  In2554    1.0  0.776315789605263  0.0075757575  0.1896293  1.0000
  Se  Se3829    1.0  0.7631578946052631  0.01515151522727273  0.32365471999999995  1.0000
  Se  Se3830    1.0  0.776315789605263  0.0075757575  0.6763452799999999  1.0000
  Se  Se3831    1.0  0.763157894736842  0.0  0.0  1.0000
  In  In2555    1.0  0.763157894868421  0.030303030227272734  0.1896293  1.0000
  Se  Se3832    1.0  0.763157894868421  0.030303030227272734  0.6763452799999999  1.0000
  In  In2556    1.0  0.7763157893421052  0.03787878795454546  0.8103706999999999  1.0000
  Se  Se3833    1.0  0.7763157893421052  0.03787878795454546  0.32365471999999995  1.0000
  Se  Se3834    1.0  0.7763157894736841  0.022727272727272728  0.0  1.0000
  In  In2557    1.0  0.7631578946052631  0.06060606068181818  0.8103706999999999  1.0000
  In  In2558    1.0  0.776315789605263  0.05303030295454546  0.1896293  1.0000
  Se  Se3835    1.0  0.7631578946052631  0.06060606068181818  0.32365471999999995  1.0000
  Se  Se3836    1.0  0.776315789605263  0.05303030295454546  0.6763452799999999  1.0000
  Se  Se3837    1.0  0.763157894736842  0.045454545454545456  0.0  1.0000
  In  In2559    1.0  0.763157894868421  0.07575757568181819  0.1896293  1.0000
  Se  Se3838    1.0  0.763157894868421  0.07575757568181819  0.6763452799999999  1.0000
  In  In2560    1.0  0.7763157893421052  0.08333333340909092  0.8103706999999999  1.0000
  Se  Se3839    1.0  0.7763157893421052  0.08333333340909092  0.32365471999999995  1.0000
  Se  Se3840    1.0  0.7763157894736841  0.06818181818181819  0.0  1.0000
  In  In2561    1.0  0.7631578946052631  0.10606060613636366  0.8103706999999999  1.0000
  In  In2562    1.0  0.776315789605263  0.09848484840909091  0.1896293  1.0000
  Se  Se3841    1.0  0.7631578946052631  0.10606060613636366  0.32365471999999995  1.0000
  Se  Se3842    1.0  0.776315789605263  0.09848484840909091  0.6763452799999999  1.0000
  Se  Se3843    1.0  0.763157894736842  0.09090909090909091  0.0  1.0000
  In  In2563    1.0  0.763157894868421  0.12121212113636365  0.1896293  1.0000
  Se  Se3844    1.0  0.763157894868421  0.12121212113636365  0.6763452799999999  1.0000
  In  In2564    1.0  0.7763157893421052  0.12878787886363638  0.8103706999999999  1.0000
  Se  Se3845    1.0  0.7763157893421052  0.12878787886363638  0.32365471999999995  1.0000
  Se  Se3846    1.0  0.7763157894736841  0.11363636363636365  0.0  1.0000
  In  In2565    1.0  0.7631578946052631  0.15151515159090911  0.8103706999999999  1.0000
  In  In2566    1.0  0.776315789605263  0.1439393938636364  0.1896293  1.0000
  Se  Se3847    1.0  0.7631578946052631  0.15151515159090911  0.32365471999999995  1.0000
  Se  Se3848    1.0  0.776315789605263  0.1439393938636364  0.6763452799999999  1.0000
  Se  Se3849    1.0  0.763157894736842  0.13636363636363638  0.0  1.0000
  In  In2567    1.0  0.763157894868421  0.16666666659090912  0.1896293  1.0000
  Se  Se3850    1.0  0.763157894868421  0.16666666659090912  0.6763452799999999  1.0000
  In  In2568    1.0  0.7763157893421052  0.17424242431818185  0.8103706999999999  1.0000
  Se  Se3851    1.0  0.7763157893421052  0.17424242431818185  0.32365471999999995  1.0000
  Se  Se3852    1.0  0.7763157894736841  0.15909090909090912  0.0  1.0000
  In  In2569    1.0  0.7631578946052631  0.19696969704545458  0.8103706999999999  1.0000
  In  In2570    1.0  0.776315789605263  0.18939393931818185  0.1896293  1.0000
  Se  Se3853    1.0  0.7631578946052631  0.19696969704545458  0.32365471999999995  1.0000
  Se  Se3854    1.0  0.776315789605263  0.18939393931818185  0.6763452799999999  1.0000
  Se  Se3855    1.0  0.763157894736842  0.18181818181818182  0.0  1.0000
  In  In2571    1.0  0.763157894868421  0.21212121204545456  0.1896293  1.0000
  Se  Se3856    1.0  0.763157894868421  0.21212121204545456  0.6763452799999999  1.0000
  In  In2572    1.0  0.7763157893421052  0.21969696977272726  0.8103706999999999  1.0000
  Se  Se3857    1.0  0.7763157893421052  0.21969696977272726  0.32365471999999995  1.0000
  Se  Se3858    1.0  0.7763157894736841  0.20454545454545456  0.0  1.0000
  In  In2573    1.0  0.7631578946052631  0.2424242425  0.8103706999999999  1.0000
  In  In2574    1.0  0.776315789605263  0.2348484847727273  0.1896293  1.0000
  Se  Se3859    1.0  0.7631578946052631  0.2424242425  0.32365471999999995  1.0000
  Se  Se3860    1.0  0.776315789605263  0.2348484847727273  0.6763452799999999  1.0000
  Se  Se3861    1.0  0.763157894736842  0.2272727272727273  0.0  1.0000
  In  In2575    1.0  0.763157894868421  0.2575757575  0.1896293  1.0000
  Se  Se3862    1.0  0.763157894868421  0.2575757575  0.6763452799999999  1.0000
  In  In2576    1.0  0.7763157893421052  0.2651515152272727  0.8103706999999999  1.0000
  Se  Se3863    1.0  0.7763157893421052  0.2651515152272727  0.32365471999999995  1.0000
  Se  Se3864    1.0  0.7763157894736841  0.25  0.0  1.0000
  In  In2577    1.0  0.7631578946052631  0.28787878795454547  0.8103706999999999  1.0000
  In  In2578    1.0  0.776315789605263  0.28030303022727276  0.1896293  1.0000
  Se  Se3865    1.0  0.7631578946052631  0.28787878795454547  0.32365471999999995  1.0000
  Se  Se3866    1.0  0.776315789605263  0.28030303022727276  0.6763452799999999  1.0000
  Se  Se3867    1.0  0.763157894736842  0.27272727272727276  0.0  1.0000
  In  In2579    1.0  0.763157894868421  0.3030303029545455  0.1896293  1.0000
  Se  Se3868    1.0  0.763157894868421  0.3030303029545455  0.6763452799999999  1.0000
  In  In2580    1.0  0.7763157893421052  0.3106060606818183  0.8103706999999999  1.0000
  Se  Se3869    1.0  0.7763157893421052  0.3106060606818183  0.32365471999999995  1.0000
  Se  Se3870    1.0  0.7763157894736841  0.2954545454545455  0.0  1.0000
  In  In2581    1.0  0.7631578946052631  0.33333333340909094  0.8103706999999999  1.0000
  In  In2582    1.0  0.776315789605263  0.32575757568181823  0.1896293  1.0000
  Se  Se3871    1.0  0.7631578946052631  0.33333333340909094  0.32365471999999995  1.0000
  Se  Se3872    1.0  0.776315789605263  0.32575757568181823  0.6763452799999999  1.0000
  Se  Se3873    1.0  0.763157894736842  0.31818181818181823  0.0  1.0000
  In  In2583    1.0  0.763157894868421  0.34848484840909094  0.1896293  1.0000
  Se  Se3874    1.0  0.763157894868421  0.34848484840909094  0.6763452799999999  1.0000
  In  In2584    1.0  0.7763157893421052  0.3560606061363637  0.8103706999999999  1.0000
  Se  Se3875    1.0  0.7763157893421052  0.3560606061363637  0.32365471999999995  1.0000
  Se  Se3876    1.0  0.7763157894736841  0.34090909090909094  0.0  1.0000
  In  In2585    1.0  0.7631578946052631  0.3787878788636364  0.8103706999999999  1.0000
  In  In2586    1.0  0.776315789605263  0.3712121211363637  0.1896293  1.0000
  Se  Se3877    1.0  0.7631578946052631  0.3787878788636364  0.32365471999999995  1.0000
  Se  Se3878    1.0  0.776315789605263  0.3712121211363637  0.6763452799999999  1.0000
  Se  Se3879    1.0  0.763157894736842  0.36363636363636365  0.0  1.0000
  In  In2587    1.0  0.763157894868421  0.3939393938636364  0.1896293  1.0000
  Se  Se3880    1.0  0.763157894868421  0.3939393938636364  0.6763452799999999  1.0000
  In  In2588    1.0  0.7763157893421052  0.40151515159090917  0.8103706999999999  1.0000
  Se  Se3881    1.0  0.7763157893421052  0.40151515159090917  0.32365471999999995  1.0000
  Se  Se3882    1.0  0.7763157894736841  0.3863636363636364  0.0  1.0000
  In  In2589    1.0  0.7631578946052631  0.4242424243181818  0.8103706999999999  1.0000
  In  In2590    1.0  0.776315789605263  0.4166666665909091  0.1896293  1.0000
  Se  Se3883    1.0  0.7631578946052631  0.4242424243181818  0.32365471999999995  1.0000
  Se  Se3884    1.0  0.776315789605263  0.4166666665909091  0.6763452799999999  1.0000
  Se  Se3885    1.0  0.763157894736842  0.4090909090909091  0.0  1.0000
  In  In2591    1.0  0.763157894868421  0.4393939393181818  0.1896293  1.0000
  Se  Se3886    1.0  0.763157894868421  0.4393939393181818  0.6763452799999999  1.0000
  In  In2592    1.0  0.7763157893421052  0.4469696970454546  0.8103706999999999  1.0000
  Se  Se3887    1.0  0.7763157893421052  0.4469696970454546  0.32365471999999995  1.0000
  Se  Se3888    1.0  0.7763157894736841  0.4318181818181819  0.0  1.0000
  In  In2593    1.0  0.7631578946052631  0.4696969697727273  0.8103706999999999  1.0000
  In  In2594    1.0  0.776315789605263  0.46212121204545453  0.1896293  1.0000
  Se  Se3889    1.0  0.7631578946052631  0.4696969697727273  0.32365471999999995  1.0000
  Se  Se3890    1.0  0.776315789605263  0.46212121204545453  0.6763452799999999  1.0000
  Se  Se3891    1.0  0.763157894736842  0.4545454545454546  0.0  1.0000
  In  In2595    1.0  0.763157894868421  0.4848484847727273  0.1896293  1.0000
  Se  Se3892    1.0  0.763157894868421  0.4848484847727273  0.6763452799999999  1.0000
  In  In2596    1.0  0.7763157893421052  0.49242424250000005  0.8103706999999999  1.0000
  Se  Se3893    1.0  0.7763157893421052  0.49242424250000005  0.32365471999999995  1.0000
  Se  Se3894    1.0  0.7763157894736841  0.47727272727272735  0.0  1.0000
  In  In2597    1.0  0.7631578946052631  0.5151515152272728  0.8103706999999999  1.0000
  In  In2598    1.0  0.776315789605263  0.5075757575  0.1896293  1.0000
  Se  Se3895    1.0  0.7631578946052631  0.5151515152272728  0.32365471999999995  1.0000
  Se  Se3896    1.0  0.776315789605263  0.5075757575  0.6763452799999999  1.0000
  Se  Se3897    1.0  0.763157894736842  0.5  0.0  1.0000
  In  In2599    1.0  0.763157894868421  0.5303030302272728  0.1896293  1.0000
  Se  Se3898    1.0  0.763157894868421  0.5303030302272728  0.6763452799999999  1.0000
  In  In2600    1.0  0.7763157893421052  0.5378787879545455  0.8103706999999999  1.0000
  Se  Se3899    1.0  0.7763157893421052  0.5378787879545455  0.32365471999999995  1.0000
  Se  Se3900    1.0  0.7763157894736841  0.5227272727272728  0.0  1.0000
  In  In2601    1.0  0.7631578946052631  0.5606060606818183  0.8103706999999999  1.0000
  In  In2602    1.0  0.776315789605263  0.5530303029545455  0.1896293  1.0000
  Se  Se3901    1.0  0.7631578946052631  0.5606060606818183  0.32365471999999995  1.0000
  Se  Se3902    1.0  0.776315789605263  0.5530303029545455  0.6763452799999999  1.0000
  Se  Se3903    1.0  0.763157894736842  0.5454545454545455  0.0  1.0000
  In  In2603    1.0  0.763157894868421  0.5757575756818183  0.1896293  1.0000
  Se  Se3904    1.0  0.763157894868421  0.5757575756818183  0.6763452799999999  1.0000
  In  In2604    1.0  0.7763157893421052  0.583333333409091  0.8103706999999999  1.0000
  Se  Se3905    1.0  0.7763157893421052  0.583333333409091  0.32365471999999995  1.0000
  Se  Se3906    1.0  0.7763157894736841  0.5681818181818183  0.0  1.0000
  In  In2605    1.0  0.7631578946052631  0.6060606061363637  0.8103706999999999  1.0000
  In  In2606    1.0  0.776315789605263  0.598484848409091  0.1896293  1.0000
  Se  Se3907    1.0  0.7631578946052631  0.6060606061363637  0.32365471999999995  1.0000
  Se  Se3908    1.0  0.776315789605263  0.598484848409091  0.6763452799999999  1.0000
  Se  Se3909    1.0  0.763157894736842  0.590909090909091  0.0  1.0000
  In  In2607    1.0  0.763157894868421  0.6212121211363637  0.1896293  1.0000
  Se  Se3910    1.0  0.763157894868421  0.6212121211363637  0.6763452799999999  1.0000
  In  In2608    1.0  0.7763157893421052  0.6287878788636365  0.8103706999999999  1.0000
  Se  Se3911    1.0  0.7763157893421052  0.6287878788636365  0.32365471999999995  1.0000
  Se  Se3912    1.0  0.7763157894736841  0.6136363636363638  0.0  1.0000
  In  In2609    1.0  0.7631578946052631  0.6515151515909091  0.8103706999999999  1.0000
  In  In2610    1.0  0.776315789605263  0.6439393938636364  0.1896293  1.0000
  Se  Se3913    1.0  0.7631578946052631  0.6515151515909091  0.32365471999999995  1.0000
  Se  Se3914    1.0  0.776315789605263  0.6439393938636364  0.6763452799999999  1.0000
  Se  Se3915    1.0  0.763157894736842  0.6363636363636365  0.0  1.0000
  In  In2611    1.0  0.763157894868421  0.6666666665909092  0.1896293  1.0000
  Se  Se3916    1.0  0.763157894868421  0.6666666665909092  0.6763452799999999  1.0000
  In  In2612    1.0  0.7763157893421052  0.6742424243181819  0.8103706999999999  1.0000
  Se  Se3917    1.0  0.7763157893421052  0.6742424243181819  0.32365471999999995  1.0000
  Se  Se3918    1.0  0.7763157894736841  0.6590909090909092  0.0  1.0000
  In  In2613    1.0  0.7631578946052631  0.6969696970454546  0.8103706999999999  1.0000
  In  In2614    1.0  0.776315789605263  0.6893939393181818  0.1896293  1.0000
  Se  Se3919    1.0  0.7631578946052631  0.6969696970454546  0.32365471999999995  1.0000
  Se  Se3920    1.0  0.776315789605263  0.6893939393181818  0.6763452799999999  1.0000
  Se  Se3921    1.0  0.763157894736842  0.6818181818181819  0.0  1.0000
  In  In2615    1.0  0.763157894868421  0.7121212120454546  0.1896293  1.0000
  Se  Se3922    1.0  0.763157894868421  0.7121212120454546  0.6763452799999999  1.0000
  In  In2616    1.0  0.7763157893421052  0.7196969697727273  0.8103706999999999  1.0000
  Se  Se3923    1.0  0.7763157893421052  0.7196969697727273  0.32365471999999995  1.0000
  Se  Se3924    1.0  0.7763157894736841  0.7045454545454547  0.0  1.0000
  In  In2617    1.0  0.7631578946052631  0.7424242425  0.8103706999999999  1.0000
  In  In2618    1.0  0.776315789605263  0.7348484847727274  0.1896293  1.0000
  Se  Se3925    1.0  0.7631578946052631  0.7424242425  0.32365471999999995  1.0000
  Se  Se3926    1.0  0.776315789605263  0.7348484847727274  0.6763452799999999  1.0000
  Se  Se3927    1.0  0.763157894736842  0.7272727272727273  0.0  1.0000
  In  In2619    1.0  0.763157894868421  0.7575757575000001  0.1896293  1.0000
  Se  Se3928    1.0  0.763157894868421  0.7575757575000001  0.6763452799999999  1.0000
  In  In2620    1.0  0.7763157893421052  0.7651515152272729  0.8103706999999999  1.0000
  Se  Se3929    1.0  0.7763157893421052  0.7651515152272729  0.32365471999999995  1.0000
  Se  Se3930    1.0  0.7763157894736841  0.7500000000000001  0.0  1.0000
  In  In2621    1.0  0.7631578946052631  0.7878787879545455  0.8103706999999999  1.0000
  In  In2622    1.0  0.776315789605263  0.7803030302272728  0.1896293  1.0000
  Se  Se3931    1.0  0.7631578946052631  0.7878787879545455  0.32365471999999995  1.0000
  Se  Se3932    1.0  0.776315789605263  0.7803030302272728  0.6763452799999999  1.0000
  Se  Se3933    1.0  0.763157894736842  0.7727272727272728  0.0  1.0000
  In  In2623    1.0  0.763157894868421  0.8030303029545455  0.1896293  1.0000
  Se  Se3934    1.0  0.763157894868421  0.8030303029545455  0.6763452799999999  1.0000
  In  In2624    1.0  0.7763157893421052  0.8106060606818183  0.8103706999999999  1.0000
  Se  Se3935    1.0  0.7763157893421052  0.8106060606818183  0.32365471999999995  1.0000
  Se  Se3936    1.0  0.7763157894736841  0.7954545454545455  0.0  1.0000
  In  In2625    1.0  0.7631578946052631  0.833333333409091  0.8103706999999999  1.0000
  In  In2626    1.0  0.776315789605263  0.8257575756818182  0.1896293  1.0000
  Se  Se3937    1.0  0.7631578946052631  0.833333333409091  0.32365471999999995  1.0000
  Se  Se3938    1.0  0.776315789605263  0.8257575756818182  0.6763452799999999  1.0000
  Se  Se3939    1.0  0.763157894736842  0.8181818181818182  0.0  1.0000
  In  In2627    1.0  0.763157894868421  0.848484848409091  0.1896293  1.0000
  Se  Se3940    1.0  0.763157894868421  0.848484848409091  0.6763452799999999  1.0000
  In  In2628    1.0  0.7763157893421052  0.8560606061363636  0.8103706999999999  1.0000
  Se  Se3941    1.0  0.7763157893421052  0.8560606061363636  0.32365471999999995  1.0000
  Se  Se3942    1.0  0.7763157894736841  0.840909090909091  0.0  1.0000
  In  In2629    1.0  0.7631578946052631  0.8787878788636366  0.8103706999999999  1.0000
  In  In2630    1.0  0.776315789605263  0.8712121211363637  0.1896293  1.0000
  Se  Se3943    1.0  0.7631578946052631  0.8787878788636366  0.32365471999999995  1.0000
  Se  Se3944    1.0  0.776315789605263  0.8712121211363637  0.6763452799999999  1.0000
  Se  Se3945    1.0  0.763157894736842  0.8636363636363638  0.0  1.0000
  In  In2631    1.0  0.763157894868421  0.8939393938636365  0.1896293  1.0000
  Se  Se3946    1.0  0.763157894868421  0.8939393938636365  0.6763452799999999  1.0000
  In  In2632    1.0  0.7763157893421052  0.9015151515909092  0.8103706999999999  1.0000
  Se  Se3947    1.0  0.7763157893421052  0.9015151515909092  0.32365471999999995  1.0000
  Se  Se3948    1.0  0.7763157894736841  0.8863636363636366  0.0  1.0000
  In  In2633    1.0  0.7631578946052631  0.9242424243181819  0.8103706999999999  1.0000
  In  In2634    1.0  0.776315789605263  0.9166666665909091  0.1896293  1.0000
  Se  Se3949    1.0  0.7631578946052631  0.9242424243181819  0.32365471999999995  1.0000
  Se  Se3950    1.0  0.776315789605263  0.9166666665909091  0.6763452799999999  1.0000
  Se  Se3951    1.0  0.763157894736842  0.9090909090909092  0.0  1.0000
  In  In2635    1.0  0.763157894868421  0.9393939393181818  0.1896293  1.0000
  Se  Se3952    1.0  0.763157894868421  0.9393939393181818  0.6763452799999999  1.0000
  In  In2636    1.0  0.7763157893421052  0.9469696970454545  0.8103706999999999  1.0000
  Se  Se3953    1.0  0.7763157893421052  0.9469696970454545  0.32365471999999995  1.0000
  Se  Se3954    1.0  0.7763157894736841  0.9318181818181819  0.0  1.0000
  In  In2637    1.0  0.7631578946052631  0.9696969697727275  0.8103706999999999  1.0000
  In  In2638    1.0  0.776315789605263  0.9621212120454546  0.1896293  1.0000
  Se  Se3955    1.0  0.7631578946052631  0.9696969697727275  0.32365471999999995  1.0000
  Se  Se3956    1.0  0.776315789605263  0.9621212120454546  0.6763452799999999  1.0000
  Se  Se3957    1.0  0.763157894736842  0.9545454545454547  0.0  1.0000
  In  In2639    1.0  0.763157894868421  0.9848484847727275  0.1896293  1.0000
  Se  Se3958    1.0  0.763157894868421  0.9848484847727275  0.6763452799999999  1.0000
  In  In2640    1.0  0.7763157893421052  0.9924242425  0.8103706999999999  1.0000
  Se  Se3959    1.0  0.7763157893421052  0.9924242425  0.32365471999999995  1.0000
  Se  Se3960    1.0  0.7763157894736841  0.9772727272727274  0.0  1.0000
  In  In2641    1.0  0.7894736840789472  0.01515151522727273  0.8103706999999999  1.0000
  In  In2642    1.0  0.8026315790789473  0.0075757575  0.1896293  1.0000
  Se  Se3961    1.0  0.7894736840789472  0.01515151522727273  0.32365471999999995  1.0000
  Se  Se3962    1.0  0.8026315790789473  0.0075757575  0.6763452799999999  1.0000
  Se  Se3963    1.0  0.7894736842105263  0.0  0.0  1.0000
  In  In2643    1.0  0.7894736843421053  0.030303030227272734  0.1896293  1.0000
  Se  Se3964    1.0  0.7894736843421053  0.030303030227272734  0.6763452799999999  1.0000
  In  In2644    1.0  0.8026315788157895  0.03787878795454546  0.8103706999999999  1.0000
  Se  Se3965    1.0  0.8026315788157895  0.03787878795454546  0.32365471999999995  1.0000
  Se  Se3966    1.0  0.8026315789473684  0.022727272727272728  0.0  1.0000
  In  In2645    1.0  0.7894736840789472  0.06060606068181818  0.8103706999999999  1.0000
  In  In2646    1.0  0.8026315790789473  0.05303030295454546  0.1896293  1.0000
  Se  Se3967    1.0  0.7894736840789472  0.06060606068181818  0.32365471999999995  1.0000
  Se  Se3968    1.0  0.8026315790789473  0.05303030295454546  0.6763452799999999  1.0000
  Se  Se3969    1.0  0.7894736842105263  0.045454545454545456  0.0  1.0000
  In  In2647    1.0  0.7894736843421053  0.07575757568181819  0.1896293  1.0000
  Se  Se3970    1.0  0.7894736843421053  0.07575757568181819  0.6763452799999999  1.0000
  In  In2648    1.0  0.8026315788157895  0.08333333340909092  0.8103706999999999  1.0000
  Se  Se3971    1.0  0.8026315788157895  0.08333333340909092  0.32365471999999995  1.0000
  Se  Se3972    1.0  0.8026315789473684  0.06818181818181819  0.0  1.0000
  In  In2649    1.0  0.7894736840789472  0.10606060613636366  0.8103706999999999  1.0000
  In  In2650    1.0  0.8026315790789473  0.09848484840909091  0.1896293  1.0000
  Se  Se3973    1.0  0.7894736840789472  0.10606060613636366  0.32365471999999995  1.0000
  Se  Se3974    1.0  0.8026315790789473  0.09848484840909091  0.6763452799999999  1.0000
  Se  Se3975    1.0  0.7894736842105263  0.09090909090909091  0.0  1.0000
  In  In2651    1.0  0.7894736843421053  0.12121212113636365  0.1896293  1.0000
  Se  Se3976    1.0  0.7894736843421053  0.12121212113636365  0.6763452799999999  1.0000
  In  In2652    1.0  0.8026315788157895  0.12878787886363638  0.8103706999999999  1.0000
  Se  Se3977    1.0  0.8026315788157895  0.12878787886363638  0.32365471999999995  1.0000
  Se  Se3978    1.0  0.8026315789473684  0.11363636363636365  0.0  1.0000
  In  In2653    1.0  0.7894736840789472  0.15151515159090911  0.8103706999999999  1.0000
  In  In2654    1.0  0.8026315790789473  0.1439393938636364  0.1896293  1.0000
  Se  Se3979    1.0  0.7894736840789472  0.15151515159090911  0.32365471999999995  1.0000
  Se  Se3980    1.0  0.8026315790789473  0.1439393938636364  0.6763452799999999  1.0000
  Se  Se3981    1.0  0.7894736842105263  0.13636363636363638  0.0  1.0000
  In  In2655    1.0  0.7894736843421053  0.16666666659090912  0.1896293  1.0000
  Se  Se3982    1.0  0.7894736843421053  0.16666666659090912  0.6763452799999999  1.0000
  In  In2656    1.0  0.8026315788157895  0.17424242431818185  0.8103706999999999  1.0000
  Se  Se3983    1.0  0.8026315788157895  0.17424242431818185  0.32365471999999995  1.0000
  Se  Se3984    1.0  0.8026315789473684  0.15909090909090912  0.0  1.0000
  In  In2657    1.0  0.7894736840789472  0.19696969704545458  0.8103706999999999  1.0000
  In  In2658    1.0  0.8026315790789473  0.18939393931818185  0.1896293  1.0000
  Se  Se3985    1.0  0.7894736840789472  0.19696969704545458  0.32365471999999995  1.0000
  Se  Se3986    1.0  0.8026315790789473  0.18939393931818185  0.6763452799999999  1.0000
  Se  Se3987    1.0  0.7894736842105263  0.18181818181818182  0.0  1.0000
  In  In2659    1.0  0.7894736843421053  0.21212121204545456  0.1896293  1.0000
  Se  Se3988    1.0  0.7894736843421053  0.21212121204545456  0.6763452799999999  1.0000
  In  In2660    1.0  0.8026315788157895  0.21969696977272726  0.8103706999999999  1.0000
  Se  Se3989    1.0  0.8026315788157895  0.21969696977272726  0.32365471999999995  1.0000
  Se  Se3990    1.0  0.8026315789473684  0.20454545454545456  0.0  1.0000
  In  In2661    1.0  0.7894736840789472  0.2424242425  0.8103706999999999  1.0000
  In  In2662    1.0  0.8026315790789473  0.2348484847727273  0.1896293  1.0000
  Se  Se3991    1.0  0.7894736840789472  0.2424242425  0.32365471999999995  1.0000
  Se  Se3992    1.0  0.8026315790789473  0.2348484847727273  0.6763452799999999  1.0000
  Se  Se3993    1.0  0.7894736842105263  0.2272727272727273  0.0  1.0000
  In  In2663    1.0  0.7894736843421053  0.2575757575  0.1896293  1.0000
  Se  Se3994    1.0  0.7894736843421053  0.2575757575  0.6763452799999999  1.0000
  In  In2664    1.0  0.8026315788157895  0.2651515152272727  0.8103706999999999  1.0000
  Se  Se3995    1.0  0.8026315788157895  0.2651515152272727  0.32365471999999995  1.0000
  Se  Se3996    1.0  0.8026315789473684  0.25  0.0  1.0000
  In  In2665    1.0  0.7894736840789472  0.28787878795454547  0.8103706999999999  1.0000
  In  In2666    1.0  0.8026315790789473  0.28030303022727276  0.1896293  1.0000
  Se  Se3997    1.0  0.7894736840789472  0.28787878795454547  0.32365471999999995  1.0000
  Se  Se3998    1.0  0.8026315790789473  0.28030303022727276  0.6763452799999999  1.0000
  Se  Se3999    1.0  0.7894736842105263  0.27272727272727276  0.0  1.0000
  In  In2667    1.0  0.7894736843421053  0.3030303029545455  0.1896293  1.0000
  Se  Se4000    1.0  0.7894736843421053  0.3030303029545455  0.6763452799999999  1.0000
  In  In2668    1.0  0.8026315788157895  0.3106060606818183  0.8103706999999999  1.0000
  Se  Se4001    1.0  0.8026315788157895  0.3106060606818183  0.32365471999999995  1.0000
  Se  Se4002    1.0  0.8026315789473684  0.2954545454545455  0.0  1.0000
  In  In2669    1.0  0.7894736840789472  0.33333333340909094  0.8103706999999999  1.0000
  In  In2670    1.0  0.8026315790789473  0.32575757568181823  0.1896293  1.0000
  Se  Se4003    1.0  0.7894736840789472  0.33333333340909094  0.32365471999999995  1.0000
  Se  Se4004    1.0  0.8026315790789473  0.32575757568181823  0.6763452799999999  1.0000
  Se  Se4005    1.0  0.7894736842105263  0.31818181818181823  0.0  1.0000
  In  In2671    1.0  0.7894736843421053  0.34848484840909094  0.1896293  1.0000
  Se  Se4006    1.0  0.7894736843421053  0.34848484840909094  0.6763452799999999  1.0000
  In  In2672    1.0  0.8026315788157895  0.3560606061363637  0.8103706999999999  1.0000
  Se  Se4007    1.0  0.8026315788157895  0.3560606061363637  0.32365471999999995  1.0000
  Se  Se4008    1.0  0.8026315789473684  0.34090909090909094  0.0  1.0000
  In  In2673    1.0  0.7894736840789472  0.3787878788636364  0.8103706999999999  1.0000
  In  In2674    1.0  0.8026315790789473  0.3712121211363637  0.1896293  1.0000
  Se  Se4009    1.0  0.7894736840789472  0.3787878788636364  0.32365471999999995  1.0000
  Se  Se4010    1.0  0.8026315790789473  0.3712121211363637  0.6763452799999999  1.0000
  Se  Se4011    1.0  0.7894736842105263  0.36363636363636365  0.0  1.0000
  In  In2675    1.0  0.7894736843421053  0.3939393938636364  0.1896293  1.0000
  Se  Se4012    1.0  0.7894736843421053  0.3939393938636364  0.6763452799999999  1.0000
  In  In2676    1.0  0.8026315788157895  0.40151515159090917  0.8103706999999999  1.0000
  Se  Se4013    1.0  0.8026315788157895  0.40151515159090917  0.32365471999999995  1.0000
  Se  Se4014    1.0  0.8026315789473684  0.3863636363636364  0.0  1.0000
  In  In2677    1.0  0.7894736840789472  0.4242424243181818  0.8103706999999999  1.0000
  In  In2678    1.0  0.8026315790789473  0.4166666665909091  0.1896293  1.0000
  Se  Se4015    1.0  0.7894736840789472  0.4242424243181818  0.32365471999999995  1.0000
  Se  Se4016    1.0  0.8026315790789473  0.4166666665909091  0.6763452799999999  1.0000
  Se  Se4017    1.0  0.7894736842105263  0.4090909090909091  0.0  1.0000
  In  In2679    1.0  0.7894736843421053  0.4393939393181818  0.1896293  1.0000
  Se  Se4018    1.0  0.7894736843421053  0.4393939393181818  0.6763452799999999  1.0000
  In  In2680    1.0  0.8026315788157895  0.4469696970454546  0.8103706999999999  1.0000
  Se  Se4019    1.0  0.8026315788157895  0.4469696970454546  0.32365471999999995  1.0000
  Se  Se4020    1.0  0.8026315789473684  0.4318181818181819  0.0  1.0000
  In  In2681    1.0  0.7894736840789472  0.4696969697727273  0.8103706999999999  1.0000
  In  In2682    1.0  0.8026315790789473  0.46212121204545453  0.1896293  1.0000
  Se  Se4021    1.0  0.7894736840789472  0.4696969697727273  0.32365471999999995  1.0000
  Se  Se4022    1.0  0.8026315790789473  0.46212121204545453  0.6763452799999999  1.0000
  Se  Se4023    1.0  0.7894736842105263  0.4545454545454546  0.0  1.0000
  In  In2683    1.0  0.7894736843421053  0.4848484847727273  0.1896293  1.0000
  Se  Se4024    1.0  0.7894736843421053  0.4848484847727273  0.6763452799999999  1.0000
  In  In2684    1.0  0.8026315788157895  0.49242424250000005  0.8103706999999999  1.0000
  Se  Se4025    1.0  0.8026315788157895  0.49242424250000005  0.32365471999999995  1.0000
  Se  Se4026    1.0  0.8026315789473684  0.47727272727272735  0.0  1.0000
  In  In2685    1.0  0.7894736840789472  0.5151515152272728  0.8103706999999999  1.0000
  In  In2686    1.0  0.8026315790789473  0.5075757575  0.1896293  1.0000
  Se  Se4027    1.0  0.7894736840789472  0.5151515152272728  0.32365471999999995  1.0000
  Se  Se4028    1.0  0.8026315790789473  0.5075757575  0.6763452799999999  1.0000
  Se  Se4029    1.0  0.7894736842105263  0.5  0.0  1.0000
  In  In2687    1.0  0.7894736843421053  0.5303030302272728  0.1896293  1.0000
  Se  Se4030    1.0  0.7894736843421053  0.5303030302272728  0.6763452799999999  1.0000
  In  In2688    1.0  0.8026315788157895  0.5378787879545455  0.8103706999999999  1.0000
  Se  Se4031    1.0  0.8026315788157895  0.5378787879545455  0.32365471999999995  1.0000
  Se  Se4032    1.0  0.8026315789473684  0.5227272727272728  0.0  1.0000
  In  In2689    1.0  0.7894736840789472  0.5606060606818183  0.8103706999999999  1.0000
  In  In2690    1.0  0.8026315790789473  0.5530303029545455  0.1896293  1.0000
  Se  Se4033    1.0  0.7894736840789472  0.5606060606818183  0.32365471999999995  1.0000
  Se  Se4034    1.0  0.8026315790789473  0.5530303029545455  0.6763452799999999  1.0000
  Se  Se4035    1.0  0.7894736842105263  0.5454545454545455  0.0  1.0000
  In  In2691    1.0  0.7894736843421053  0.5757575756818183  0.1896293  1.0000
  Se  Se4036    1.0  0.7894736843421053  0.5757575756818183  0.6763452799999999  1.0000
  In  In2692    1.0  0.8026315788157895  0.583333333409091  0.8103706999999999  1.0000
  Se  Se4037    1.0  0.8026315788157895  0.583333333409091  0.32365471999999995  1.0000
  Se  Se4038    1.0  0.8026315789473684  0.5681818181818183  0.0  1.0000
  In  In2693    1.0  0.7894736840789472  0.6060606061363637  0.8103706999999999  1.0000
  In  In2694    1.0  0.8026315790789473  0.598484848409091  0.1896293  1.0000
  Se  Se4039    1.0  0.7894736840789472  0.6060606061363637  0.32365471999999995  1.0000
  Se  Se4040    1.0  0.8026315790789473  0.598484848409091  0.6763452799999999  1.0000
  Se  Se4041    1.0  0.7894736842105263  0.590909090909091  0.0  1.0000
  In  In2695    1.0  0.7894736843421053  0.6212121211363637  0.1896293  1.0000
  Se  Se4042    1.0  0.7894736843421053  0.6212121211363637  0.6763452799999999  1.0000
  In  In2696    1.0  0.8026315788157895  0.6287878788636365  0.8103706999999999  1.0000
  Se  Se4043    1.0  0.8026315788157895  0.6287878788636365  0.32365471999999995  1.0000
  Se  Se4044    1.0  0.8026315789473684  0.6136363636363638  0.0  1.0000
  In  In2697    1.0  0.7894736840789472  0.6515151515909091  0.8103706999999999  1.0000
  In  In2698    1.0  0.8026315790789473  0.6439393938636364  0.1896293  1.0000
  Se  Se4045    1.0  0.7894736840789472  0.6515151515909091  0.32365471999999995  1.0000
  Se  Se4046    1.0  0.8026315790789473  0.6439393938636364  0.6763452799999999  1.0000
  Se  Se4047    1.0  0.7894736842105263  0.6363636363636365  0.0  1.0000
  In  In2699    1.0  0.7894736843421053  0.6666666665909092  0.1896293  1.0000
  Se  Se4048    1.0  0.7894736843421053  0.6666666665909092  0.6763452799999999  1.0000
  In  In2700    1.0  0.8026315788157895  0.6742424243181819  0.8103706999999999  1.0000
  Se  Se4049    1.0  0.8026315788157895  0.6742424243181819  0.32365471999999995  1.0000
  Se  Se4050    1.0  0.8026315789473684  0.6590909090909092  0.0  1.0000
  In  In2701    1.0  0.7894736840789472  0.6969696970454546  0.8103706999999999  1.0000
  In  In2702    1.0  0.8026315790789473  0.6893939393181818  0.1896293  1.0000
  Se  Se4051    1.0  0.7894736840789472  0.6969696970454546  0.32365471999999995  1.0000
  Se  Se4052    1.0  0.8026315790789473  0.6893939393181818  0.6763452799999999  1.0000
  Se  Se4053    1.0  0.7894736842105263  0.6818181818181819  0.0  1.0000
  In  In2703    1.0  0.7894736843421053  0.7121212120454546  0.1896293  1.0000
  Se  Se4054    1.0  0.7894736843421053  0.7121212120454546  0.6763452799999999  1.0000
  In  In2704    1.0  0.8026315788157895  0.7196969697727273  0.8103706999999999  1.0000
  Se  Se4055    1.0  0.8026315788157895  0.7196969697727273  0.32365471999999995  1.0000
  Se  Se4056    1.0  0.8026315789473684  0.7045454545454547  0.0  1.0000
  In  In2705    1.0  0.7894736840789472  0.7424242425  0.8103706999999999  1.0000
  In  In2706    1.0  0.8026315790789473  0.7348484847727274  0.1896293  1.0000
  Se  Se4057    1.0  0.7894736840789472  0.7424242425  0.32365471999999995  1.0000
  Se  Se4058    1.0  0.8026315790789473  0.7348484847727274  0.6763452799999999  1.0000
  Se  Se4059    1.0  0.7894736842105263  0.7272727272727273  0.0  1.0000
  In  In2707    1.0  0.7894736843421053  0.7575757575000001  0.1896293  1.0000
  Se  Se4060    1.0  0.7894736843421053  0.7575757575000001  0.6763452799999999  1.0000
  In  In2708    1.0  0.8026315788157895  0.7651515152272729  0.8103706999999999  1.0000
  Se  Se4061    1.0  0.8026315788157895  0.7651515152272729  0.32365471999999995  1.0000
  Se  Se4062    1.0  0.8026315789473684  0.7500000000000001  0.0  1.0000
  In  In2709    1.0  0.7894736840789472  0.7878787879545455  0.8103706999999999  1.0000
  In  In2710    1.0  0.8026315790789473  0.7803030302272728  0.1896293  1.0000
  Se  Se4063    1.0  0.7894736840789472  0.7878787879545455  0.32365471999999995  1.0000
  Se  Se4064    1.0  0.8026315790789473  0.7803030302272728  0.6763452799999999  1.0000
  Se  Se4065    1.0  0.7894736842105263  0.7727272727272728  0.0  1.0000
  In  In2711    1.0  0.7894736843421053  0.8030303029545455  0.1896293  1.0000
  Se  Se4066    1.0  0.7894736843421053  0.8030303029545455  0.6763452799999999  1.0000
  In  In2712    1.0  0.8026315788157895  0.8106060606818183  0.8103706999999999  1.0000
  Se  Se4067    1.0  0.8026315788157895  0.8106060606818183  0.32365471999999995  1.0000
  Se  Se4068    1.0  0.8026315789473684  0.7954545454545455  0.0  1.0000
  In  In2713    1.0  0.7894736840789472  0.833333333409091  0.8103706999999999  1.0000
  In  In2714    1.0  0.8026315790789473  0.8257575756818182  0.1896293  1.0000
  Se  Se4069    1.0  0.7894736840789472  0.833333333409091  0.32365471999999995  1.0000
  Se  Se4070    1.0  0.8026315790789473  0.8257575756818182  0.6763452799999999  1.0000
  Se  Se4071    1.0  0.7894736842105263  0.8181818181818182  0.0  1.0000
  In  In2715    1.0  0.7894736843421053  0.848484848409091  0.1896293  1.0000
  Se  Se4072    1.0  0.7894736843421053  0.848484848409091  0.6763452799999999  1.0000
  In  In2716    1.0  0.8026315788157895  0.8560606061363636  0.8103706999999999  1.0000
  Se  Se4073    1.0  0.8026315788157895  0.8560606061363636  0.32365471999999995  1.0000
  Se  Se4074    1.0  0.8026315789473684  0.840909090909091  0.0  1.0000
  In  In2717    1.0  0.7894736840789472  0.8787878788636366  0.8103706999999999  1.0000
  In  In2718    1.0  0.8026315790789473  0.8712121211363637  0.1896293  1.0000
  Se  Se4075    1.0  0.7894736840789472  0.8787878788636366  0.32365471999999995  1.0000
  Se  Se4076    1.0  0.8026315790789473  0.8712121211363637  0.6763452799999999  1.0000
  Se  Se4077    1.0  0.7894736842105263  0.8636363636363638  0.0  1.0000
  In  In2719    1.0  0.7894736843421053  0.8939393938636365  0.1896293  1.0000
  Se  Se4078    1.0  0.7894736843421053  0.8939393938636365  0.6763452799999999  1.0000
  In  In2720    1.0  0.8026315788157895  0.9015151515909092  0.8103706999999999  1.0000
  Se  Se4079    1.0  0.8026315788157895  0.9015151515909092  0.32365471999999995  1.0000
  Se  Se4080    1.0  0.8026315789473684  0.8863636363636366  0.0  1.0000
  In  In2721    1.0  0.7894736840789472  0.9242424243181819  0.8103706999999999  1.0000
  In  In2722    1.0  0.8026315790789473  0.9166666665909091  0.1896293  1.0000
  Se  Se4081    1.0  0.7894736840789472  0.9242424243181819  0.32365471999999995  1.0000
  Se  Se4082    1.0  0.8026315790789473  0.9166666665909091  0.6763452799999999  1.0000
  Se  Se4083    1.0  0.7894736842105263  0.9090909090909092  0.0  1.0000
  In  In2723    1.0  0.7894736843421053  0.9393939393181818  0.1896293  1.0000
  Se  Se4084    1.0  0.7894736843421053  0.9393939393181818  0.6763452799999999  1.0000
  In  In2724    1.0  0.8026315788157895  0.9469696970454545  0.8103706999999999  1.0000
  Se  Se4085    1.0  0.8026315788157895  0.9469696970454545  0.32365471999999995  1.0000
  Se  Se4086    1.0  0.8026315789473684  0.9318181818181819  0.0  1.0000
  In  In2725    1.0  0.7894736840789472  0.9696969697727275  0.8103706999999999  1.0000
  In  In2726    1.0  0.8026315790789473  0.9621212120454546  0.1896293  1.0000
  Se  Se4087    1.0  0.7894736840789472  0.9696969697727275  0.32365471999999995  1.0000
  Se  Se4088    1.0  0.8026315790789473  0.9621212120454546  0.6763452799999999  1.0000
  Se  Se4089    1.0  0.7894736842105263  0.9545454545454547  0.0  1.0000
  In  In2727    1.0  0.7894736843421053  0.9848484847727275  0.1896293  1.0000
  Se  Se4090    1.0  0.7894736843421053  0.9848484847727275  0.6763452799999999  1.0000
  In  In2728    1.0  0.8026315788157895  0.9924242425  0.8103706999999999  1.0000
  Se  Se4091    1.0  0.8026315788157895  0.9924242425  0.32365471999999995  1.0000
  Se  Se4092    1.0  0.8026315789473684  0.9772727272727274  0.0  1.0000
  In  In2729    1.0  0.8157894735526315  0.01515151522727273  0.8103706999999999  1.0000
  In  In2730    1.0  0.8289473685526315  0.0075757575  0.1896293  1.0000
  Se  Se4093    1.0  0.8157894735526315  0.01515151522727273  0.32365471999999995  1.0000
  Se  Se4094    1.0  0.8289473685526315  0.0075757575  0.6763452799999999  1.0000
  Se  Se4095    1.0  0.8157894736842105  0.0  0.0  1.0000
  In  In2731    1.0  0.8157894738157895  0.030303030227272734  0.1896293  1.0000
  Se  Se4096    1.0  0.8157894738157895  0.030303030227272734  0.6763452799999999  1.0000
  In  In2732    1.0  0.8289473682894737  0.03787878795454546  0.8103706999999999  1.0000
  Se  Se4097    1.0  0.8289473682894737  0.03787878795454546  0.32365471999999995  1.0000
  Se  Se4098    1.0  0.8289473684210525  0.022727272727272728  0.0  1.0000
  In  In2733    1.0  0.8157894735526315  0.06060606068181818  0.8103706999999999  1.0000
  In  In2734    1.0  0.8289473685526315  0.05303030295454546  0.1896293  1.0000
  Se  Se4099    1.0  0.8157894735526315  0.06060606068181818  0.32365471999999995  1.0000
  Se  Se4100    1.0  0.8289473685526315  0.05303030295454546  0.6763452799999999  1.0000
  Se  Se4101    1.0  0.8157894736842105  0.045454545454545456  0.0  1.0000
  In  In2735    1.0  0.8157894738157895  0.07575757568181819  0.1896293  1.0000
  Se  Se4102    1.0  0.8157894738157895  0.07575757568181819  0.6763452799999999  1.0000
  In  In2736    1.0  0.8289473682894737  0.08333333340909092  0.8103706999999999  1.0000
  Se  Se4103    1.0  0.8289473682894737  0.08333333340909092  0.32365471999999995  1.0000
  Se  Se4104    1.0  0.8289473684210525  0.06818181818181819  0.0  1.0000
  In  In2737    1.0  0.8157894735526315  0.10606060613636366  0.8103706999999999  1.0000
  In  In2738    1.0  0.8289473685526315  0.09848484840909091  0.1896293  1.0000
  Se  Se4105    1.0  0.8157894735526315  0.10606060613636366  0.32365471999999995  1.0000
  Se  Se4106    1.0  0.8289473685526315  0.09848484840909091  0.6763452799999999  1.0000
  Se  Se4107    1.0  0.8157894736842105  0.09090909090909091  0.0  1.0000
  In  In2739    1.0  0.8157894738157895  0.12121212113636365  0.1896293  1.0000
  Se  Se4108    1.0  0.8157894738157895  0.12121212113636365  0.6763452799999999  1.0000
  In  In2740    1.0  0.8289473682894737  0.12878787886363638  0.8103706999999999  1.0000
  Se  Se4109    1.0  0.8289473682894737  0.12878787886363638  0.32365471999999995  1.0000
  Se  Se4110    1.0  0.8289473684210525  0.11363636363636365  0.0  1.0000
  In  In2741    1.0  0.8157894735526315  0.15151515159090911  0.8103706999999999  1.0000
  In  In2742    1.0  0.8289473685526315  0.1439393938636364  0.1896293  1.0000
  Se  Se4111    1.0  0.8157894735526315  0.15151515159090911  0.32365471999999995  1.0000
  Se  Se4112    1.0  0.8289473685526315  0.1439393938636364  0.6763452799999999  1.0000
  Se  Se4113    1.0  0.8157894736842105  0.13636363636363638  0.0  1.0000
  In  In2743    1.0  0.8157894738157895  0.16666666659090912  0.1896293  1.0000
  Se  Se4114    1.0  0.8157894738157895  0.16666666659090912  0.6763452799999999  1.0000
  In  In2744    1.0  0.8289473682894737  0.17424242431818185  0.8103706999999999  1.0000
  Se  Se4115    1.0  0.8289473682894737  0.17424242431818185  0.32365471999999995  1.0000
  Se  Se4116    1.0  0.8289473684210525  0.15909090909090912  0.0  1.0000
  In  In2745    1.0  0.8157894735526315  0.19696969704545458  0.8103706999999999  1.0000
  In  In2746    1.0  0.8289473685526315  0.18939393931818185  0.1896293  1.0000
  Se  Se4117    1.0  0.8157894735526315  0.19696969704545458  0.32365471999999995  1.0000
  Se  Se4118    1.0  0.8289473685526315  0.18939393931818185  0.6763452799999999  1.0000
  Se  Se4119    1.0  0.8157894736842105  0.18181818181818182  0.0  1.0000
  In  In2747    1.0  0.8157894738157895  0.21212121204545456  0.1896293  1.0000
  Se  Se4120    1.0  0.8157894738157895  0.21212121204545456  0.6763452799999999  1.0000
  In  In2748    1.0  0.8289473682894737  0.21969696977272726  0.8103706999999999  1.0000
  Se  Se4121    1.0  0.8289473682894737  0.21969696977272726  0.32365471999999995  1.0000
  Se  Se4122    1.0  0.8289473684210525  0.20454545454545456  0.0  1.0000
  In  In2749    1.0  0.8157894735526315  0.2424242425  0.8103706999999999  1.0000
  In  In2750    1.0  0.8289473685526315  0.2348484847727273  0.1896293  1.0000
  Se  Se4123    1.0  0.8157894735526315  0.2424242425  0.32365471999999995  1.0000
  Se  Se4124    1.0  0.8289473685526315  0.2348484847727273  0.6763452799999999  1.0000
  Se  Se4125    1.0  0.8157894736842105  0.2272727272727273  0.0  1.0000
  In  In2751    1.0  0.8157894738157895  0.2575757575  0.1896293  1.0000
  Se  Se4126    1.0  0.8157894738157895  0.2575757575  0.6763452799999999  1.0000
  In  In2752    1.0  0.8289473682894737  0.2651515152272727  0.8103706999999999  1.0000
  Se  Se4127    1.0  0.8289473682894737  0.2651515152272727  0.32365471999999995  1.0000
  Se  Se4128    1.0  0.8289473684210525  0.25  0.0  1.0000
  In  In2753    1.0  0.8157894735526315  0.28787878795454547  0.8103706999999999  1.0000
  In  In2754    1.0  0.8289473685526315  0.28030303022727276  0.1896293  1.0000
  Se  Se4129    1.0  0.8157894735526315  0.28787878795454547  0.32365471999999995  1.0000
  Se  Se4130    1.0  0.8289473685526315  0.28030303022727276  0.6763452799999999  1.0000
  Se  Se4131    1.0  0.8157894736842105  0.27272727272727276  0.0  1.0000
  In  In2755    1.0  0.8157894738157895  0.3030303029545455  0.1896293  1.0000
  Se  Se4132    1.0  0.8157894738157895  0.3030303029545455  0.6763452799999999  1.0000
  In  In2756    1.0  0.8289473682894737  0.3106060606818183  0.8103706999999999  1.0000
  Se  Se4133    1.0  0.8289473682894737  0.3106060606818183  0.32365471999999995  1.0000
  Se  Se4134    1.0  0.8289473684210525  0.2954545454545455  0.0  1.0000
  In  In2757    1.0  0.8157894735526315  0.33333333340909094  0.8103706999999999  1.0000
  In  In2758    1.0  0.8289473685526315  0.32575757568181823  0.1896293  1.0000
  Se  Se4135    1.0  0.8157894735526315  0.33333333340909094  0.32365471999999995  1.0000
  Se  Se4136    1.0  0.8289473685526315  0.32575757568181823  0.6763452799999999  1.0000
  Se  Se4137    1.0  0.8157894736842105  0.31818181818181823  0.0  1.0000
  In  In2759    1.0  0.8157894738157895  0.34848484840909094  0.1896293  1.0000
  Se  Se4138    1.0  0.8157894738157895  0.34848484840909094  0.6763452799999999  1.0000
  In  In2760    1.0  0.8289473682894737  0.3560606061363637  0.8103706999999999  1.0000
  Se  Se4139    1.0  0.8289473682894737  0.3560606061363637  0.32365471999999995  1.0000
  Se  Se4140    1.0  0.8289473684210525  0.34090909090909094  0.0  1.0000
  In  In2761    1.0  0.8157894735526315  0.3787878788636364  0.8103706999999999  1.0000
  In  In2762    1.0  0.8289473685526315  0.3712121211363637  0.1896293  1.0000
  Se  Se4141    1.0  0.8157894735526315  0.3787878788636364  0.32365471999999995  1.0000
  Se  Se4142    1.0  0.8289473685526315  0.3712121211363637  0.6763452799999999  1.0000
  Se  Se4143    1.0  0.8157894736842105  0.36363636363636365  0.0  1.0000
  In  In2763    1.0  0.8157894738157895  0.3939393938636364  0.1896293  1.0000
  Se  Se4144    1.0  0.8157894738157895  0.3939393938636364  0.6763452799999999  1.0000
  In  In2764    1.0  0.8289473682894737  0.40151515159090917  0.8103706999999999  1.0000
  Se  Se4145    1.0  0.8289473682894737  0.40151515159090917  0.32365471999999995  1.0000
  Se  Se4146    1.0  0.8289473684210525  0.3863636363636364  0.0  1.0000
  In  In2765    1.0  0.8157894735526315  0.4242424243181818  0.8103706999999999  1.0000
  In  In2766    1.0  0.8289473685526315  0.4166666665909091  0.1896293  1.0000
  Se  Se4147    1.0  0.8157894735526315  0.4242424243181818  0.32365471999999995  1.0000
  Se  Se4148    1.0  0.8289473685526315  0.4166666665909091  0.6763452799999999  1.0000
  Se  Se4149    1.0  0.8157894736842105  0.4090909090909091  0.0  1.0000
  In  In2767    1.0  0.8157894738157895  0.4393939393181818  0.1896293  1.0000
  Se  Se4150    1.0  0.8157894738157895  0.4393939393181818  0.6763452799999999  1.0000
  In  In2768    1.0  0.8289473682894737  0.4469696970454546  0.8103706999999999  1.0000
  Se  Se4151    1.0  0.8289473682894737  0.4469696970454546  0.32365471999999995  1.0000
  Se  Se4152    1.0  0.8289473684210525  0.4318181818181819  0.0  1.0000
  In  In2769    1.0  0.8157894735526315  0.4696969697727273  0.8103706999999999  1.0000
  In  In2770    1.0  0.8289473685526315  0.46212121204545453  0.1896293  1.0000
  Se  Se4153    1.0  0.8157894735526315  0.4696969697727273  0.32365471999999995  1.0000
  Se  Se4154    1.0  0.8289473685526315  0.46212121204545453  0.6763452799999999  1.0000
  Se  Se4155    1.0  0.8157894736842105  0.4545454545454546  0.0  1.0000
  In  In2771    1.0  0.8157894738157895  0.4848484847727273  0.1896293  1.0000
  Se  Se4156    1.0  0.8157894738157895  0.4848484847727273  0.6763452799999999  1.0000
  In  In2772    1.0  0.8289473682894737  0.49242424250000005  0.8103706999999999  1.0000
  Se  Se4157    1.0  0.8289473682894737  0.49242424250000005  0.32365471999999995  1.0000
  Se  Se4158    1.0  0.8289473684210525  0.47727272727272735  0.0  1.0000
  In  In2773    1.0  0.8157894735526315  0.5151515152272728  0.8103706999999999  1.0000
  In  In2774    1.0  0.8289473685526315  0.5075757575  0.1896293  1.0000
  Se  Se4159    1.0  0.8157894735526315  0.5151515152272728  0.32365471999999995  1.0000
  Se  Se4160    1.0  0.8289473685526315  0.5075757575  0.6763452799999999  1.0000
  Se  Se4161    1.0  0.8157894736842105  0.5  0.0  1.0000
  In  In2775    1.0  0.8157894738157895  0.5303030302272728  0.1896293  1.0000
  Se  Se4162    1.0  0.8157894738157895  0.5303030302272728  0.6763452799999999  1.0000
  In  In2776    1.0  0.8289473682894737  0.5378787879545455  0.8103706999999999  1.0000
  Se  Se4163    1.0  0.8289473682894737  0.5378787879545455  0.32365471999999995  1.0000
  Se  Se4164    1.0  0.8289473684210525  0.5227272727272728  0.0  1.0000
  In  In2777    1.0  0.8157894735526315  0.5606060606818183  0.8103706999999999  1.0000
  In  In2778    1.0  0.8289473685526315  0.5530303029545455  0.1896293  1.0000
  Se  Se4165    1.0  0.8157894735526315  0.5606060606818183  0.32365471999999995  1.0000
  Se  Se4166    1.0  0.8289473685526315  0.5530303029545455  0.6763452799999999  1.0000
  Se  Se4167    1.0  0.8157894736842105  0.5454545454545455  0.0  1.0000
  In  In2779    1.0  0.8157894738157895  0.5757575756818183  0.1896293  1.0000
  Se  Se4168    1.0  0.8157894738157895  0.5757575756818183  0.6763452799999999  1.0000
  In  In2780    1.0  0.8289473682894737  0.583333333409091  0.8103706999999999  1.0000
  Se  Se4169    1.0  0.8289473682894737  0.583333333409091  0.32365471999999995  1.0000
  Se  Se4170    1.0  0.8289473684210525  0.5681818181818183  0.0  1.0000
  In  In2781    1.0  0.8157894735526315  0.6060606061363637  0.8103706999999999  1.0000
  In  In2782    1.0  0.8289473685526315  0.598484848409091  0.1896293  1.0000
  Se  Se4171    1.0  0.8157894735526315  0.6060606061363637  0.32365471999999995  1.0000
  Se  Se4172    1.0  0.8289473685526315  0.598484848409091  0.6763452799999999  1.0000
  Se  Se4173    1.0  0.8157894736842105  0.590909090909091  0.0  1.0000
  In  In2783    1.0  0.8157894738157895  0.6212121211363637  0.1896293  1.0000
  Se  Se4174    1.0  0.8157894738157895  0.6212121211363637  0.6763452799999999  1.0000
  In  In2784    1.0  0.8289473682894737  0.6287878788636365  0.8103706999999999  1.0000
  Se  Se4175    1.0  0.8289473682894737  0.6287878788636365  0.32365471999999995  1.0000
  Se  Se4176    1.0  0.8289473684210525  0.6136363636363638  0.0  1.0000
  In  In2785    1.0  0.8157894735526315  0.6515151515909091  0.8103706999999999  1.0000
  In  In2786    1.0  0.8289473685526315  0.6439393938636364  0.1896293  1.0000
  Se  Se4177    1.0  0.8157894735526315  0.6515151515909091  0.32365471999999995  1.0000
  Se  Se4178    1.0  0.8289473685526315  0.6439393938636364  0.6763452799999999  1.0000
  Se  Se4179    1.0  0.8157894736842105  0.6363636363636365  0.0  1.0000
  In  In2787    1.0  0.8157894738157895  0.6666666665909092  0.1896293  1.0000
  Se  Se4180    1.0  0.8157894738157895  0.6666666665909092  0.6763452799999999  1.0000
  In  In2788    1.0  0.8289473682894737  0.6742424243181819  0.8103706999999999  1.0000
  Se  Se4181    1.0  0.8289473682894737  0.6742424243181819  0.32365471999999995  1.0000
  Se  Se4182    1.0  0.8289473684210525  0.6590909090909092  0.0  1.0000
  In  In2789    1.0  0.8157894735526315  0.6969696970454546  0.8103706999999999  1.0000
  In  In2790    1.0  0.8289473685526315  0.6893939393181818  0.1896293  1.0000
  Se  Se4183    1.0  0.8157894735526315  0.6969696970454546  0.32365471999999995  1.0000
  Se  Se4184    1.0  0.8289473685526315  0.6893939393181818  0.6763452799999999  1.0000
  Se  Se4185    1.0  0.8157894736842105  0.6818181818181819  0.0  1.0000
  In  In2791    1.0  0.8157894738157895  0.7121212120454546  0.1896293  1.0000
  Se  Se4186    1.0  0.8157894738157895  0.7121212120454546  0.6763452799999999  1.0000
  In  In2792    1.0  0.8289473682894737  0.7196969697727273  0.8103706999999999  1.0000
  Se  Se4187    1.0  0.8289473682894737  0.7196969697727273  0.32365471999999995  1.0000
  Se  Se4188    1.0  0.8289473684210525  0.7045454545454547  0.0  1.0000
  In  In2793    1.0  0.8157894735526315  0.7424242425  0.8103706999999999  1.0000
  In  In2794    1.0  0.8289473685526315  0.7348484847727274  0.1896293  1.0000
  Se  Se4189    1.0  0.8157894735526315  0.7424242425  0.32365471999999995  1.0000
  Se  Se4190    1.0  0.8289473685526315  0.7348484847727274  0.6763452799999999  1.0000
  Se  Se4191    1.0  0.8157894736842105  0.7272727272727273  0.0  1.0000
  In  In2795    1.0  0.8157894738157895  0.7575757575000001  0.1896293  1.0000
  Se  Se4192    1.0  0.8157894738157895  0.7575757575000001  0.6763452799999999  1.0000
  In  In2796    1.0  0.8289473682894737  0.7651515152272729  0.8103706999999999  1.0000
  Se  Se4193    1.0  0.8289473682894737  0.7651515152272729  0.32365471999999995  1.0000
  Se  Se4194    1.0  0.8289473684210525  0.7500000000000001  0.0  1.0000
  In  In2797    1.0  0.8157894735526315  0.7878787879545455  0.8103706999999999  1.0000
  In  In2798    1.0  0.8289473685526315  0.7803030302272728  0.1896293  1.0000
  Se  Se4195    1.0  0.8157894735526315  0.7878787879545455  0.32365471999999995  1.0000
  Se  Se4196    1.0  0.8289473685526315  0.7803030302272728  0.6763452799999999  1.0000
  Se  Se4197    1.0  0.8157894736842105  0.7727272727272728  0.0  1.0000
  In  In2799    1.0  0.8157894738157895  0.8030303029545455  0.1896293  1.0000
  Se  Se4198    1.0  0.8157894738157895  0.8030303029545455  0.6763452799999999  1.0000
  In  In2800    1.0  0.8289473682894737  0.8106060606818183  0.8103706999999999  1.0000
  Se  Se4199    1.0  0.8289473682894737  0.8106060606818183  0.32365471999999995  1.0000
  Se  Se4200    1.0  0.8289473684210525  0.7954545454545455  0.0  1.0000
  In  In2801    1.0  0.8157894735526315  0.833333333409091  0.8103706999999999  1.0000
  In  In2802    1.0  0.8289473685526315  0.8257575756818182  0.1896293  1.0000
  Se  Se4201    1.0  0.8157894735526315  0.833333333409091  0.32365471999999995  1.0000
  Se  Se4202    1.0  0.8289473685526315  0.8257575756818182  0.6763452799999999  1.0000
  Se  Se4203    1.0  0.8157894736842105  0.8181818181818182  0.0  1.0000
  In  In2803    1.0  0.8157894738157895  0.848484848409091  0.1896293  1.0000
  Se  Se4204    1.0  0.8157894738157895  0.848484848409091  0.6763452799999999  1.0000
  In  In2804    1.0  0.8289473682894737  0.8560606061363636  0.8103706999999999  1.0000
  Se  Se4205    1.0  0.8289473682894737  0.8560606061363636  0.32365471999999995  1.0000
  Se  Se4206    1.0  0.8289473684210525  0.840909090909091  0.0  1.0000
  In  In2805    1.0  0.8157894735526315  0.8787878788636366  0.8103706999999999  1.0000
  In  In2806    1.0  0.8289473685526315  0.8712121211363637  0.1896293  1.0000
  Se  Se4207    1.0  0.8157894735526315  0.8787878788636366  0.32365471999999995  1.0000
  Se  Se4208    1.0  0.8289473685526315  0.8712121211363637  0.6763452799999999  1.0000
  Se  Se4209    1.0  0.8157894736842105  0.8636363636363638  0.0  1.0000
  In  In2807    1.0  0.8157894738157895  0.8939393938636365  0.1896293  1.0000
  Se  Se4210    1.0  0.8157894738157895  0.8939393938636365  0.6763452799999999  1.0000
  In  In2808    1.0  0.8289473682894737  0.9015151515909092  0.8103706999999999  1.0000
  Se  Se4211    1.0  0.8289473682894737  0.9015151515909092  0.32365471999999995  1.0000
  Se  Se4212    1.0  0.8289473684210525  0.8863636363636366  0.0  1.0000
  In  In2809    1.0  0.8157894735526315  0.9242424243181819  0.8103706999999999  1.0000
  In  In2810    1.0  0.8289473685526315  0.9166666665909091  0.1896293  1.0000
  Se  Se4213    1.0  0.8157894735526315  0.9242424243181819  0.32365471999999995  1.0000
  Se  Se4214    1.0  0.8289473685526315  0.9166666665909091  0.6763452799999999  1.0000
  Se  Se4215    1.0  0.8157894736842105  0.9090909090909092  0.0  1.0000
  In  In2811    1.0  0.8157894738157895  0.9393939393181818  0.1896293  1.0000
  Se  Se4216    1.0  0.8157894738157895  0.9393939393181818  0.6763452799999999  1.0000
  In  In2812    1.0  0.8289473682894737  0.9469696970454545  0.8103706999999999  1.0000
  Se  Se4217    1.0  0.8289473682894737  0.9469696970454545  0.32365471999999995  1.0000
  Se  Se4218    1.0  0.8289473684210525  0.9318181818181819  0.0  1.0000
  In  In2813    1.0  0.8157894735526315  0.9696969697727275  0.8103706999999999  1.0000
  In  In2814    1.0  0.8289473685526315  0.9621212120454546  0.1896293  1.0000
  Se  Se4219    1.0  0.8157894735526315  0.9696969697727275  0.32365471999999995  1.0000
  Se  Se4220    1.0  0.8289473685526315  0.9621212120454546  0.6763452799999999  1.0000
  Se  Se4221    1.0  0.8157894736842105  0.9545454545454547  0.0  1.0000
  In  In2815    1.0  0.8157894738157895  0.9848484847727275  0.1896293  1.0000
  Se  Se4222    1.0  0.8157894738157895  0.9848484847727275  0.6763452799999999  1.0000
  In  In2816    1.0  0.8289473682894737  0.9924242425  0.8103706999999999  1.0000
  Se  Se4223    1.0  0.8289473682894737  0.9924242425  0.32365471999999995  1.0000
  Se  Se4224    1.0  0.8289473684210525  0.9772727272727274  0.0  1.0000
  In  In2817    1.0  0.8421052630263157  0.01515151522727273  0.8103706999999999  1.0000
  In  In2818    1.0  0.8552631580263158  0.0075757575  0.1896293  1.0000
  Se  Se4225    1.0  0.8421052630263157  0.01515151522727273  0.32365471999999995  1.0000
  Se  Se4226    1.0  0.8552631580263158  0.0075757575  0.6763452799999999  1.0000
  Se  Se4227    1.0  0.8421052631578947  0.0  0.0  1.0000
  In  In2819    1.0  0.8421052632894737  0.030303030227272734  0.1896293  1.0000
  Se  Se4228    1.0  0.8421052632894737  0.030303030227272734  0.6763452799999999  1.0000
  In  In2820    1.0  0.8552631577631578  0.03787878795454546  0.8103706999999999  1.0000
  Se  Se4229    1.0  0.8552631577631578  0.03787878795454546  0.32365471999999995  1.0000
  Se  Se4230    1.0  0.8552631578947367  0.022727272727272728  0.0  1.0000
  In  In2821    1.0  0.8421052630263157  0.06060606068181818  0.8103706999999999  1.0000
  In  In2822    1.0  0.8552631580263158  0.05303030295454546  0.1896293  1.0000
  Se  Se4231    1.0  0.8421052630263157  0.06060606068181818  0.32365471999999995  1.0000
  Se  Se4232    1.0  0.8552631580263158  0.05303030295454546  0.6763452799999999  1.0000
  Se  Se4233    1.0  0.8421052631578947  0.045454545454545456  0.0  1.0000
  In  In2823    1.0  0.8421052632894737  0.07575757568181819  0.1896293  1.0000
  Se  Se4234    1.0  0.8421052632894737  0.07575757568181819  0.6763452799999999  1.0000
  In  In2824    1.0  0.8552631577631578  0.08333333340909092  0.8103706999999999  1.0000
  Se  Se4235    1.0  0.8552631577631578  0.08333333340909092  0.32365471999999995  1.0000
  Se  Se4236    1.0  0.8552631578947367  0.06818181818181819  0.0  1.0000
  In  In2825    1.0  0.8421052630263157  0.10606060613636366  0.8103706999999999  1.0000
  In  In2826    1.0  0.8552631580263158  0.09848484840909091  0.1896293  1.0000
  Se  Se4237    1.0  0.8421052630263157  0.10606060613636366  0.32365471999999995  1.0000
  Se  Se4238    1.0  0.8552631580263158  0.09848484840909091  0.6763452799999999  1.0000
  Se  Se4239    1.0  0.8421052631578947  0.09090909090909091  0.0  1.0000
  In  In2827    1.0  0.8421052632894737  0.12121212113636365  0.1896293  1.0000
  Se  Se4240    1.0  0.8421052632894737  0.12121212113636365  0.6763452799999999  1.0000
  In  In2828    1.0  0.8552631577631578  0.12878787886363638  0.8103706999999999  1.0000
  Se  Se4241    1.0  0.8552631577631578  0.12878787886363638  0.32365471999999995  1.0000
  Se  Se4242    1.0  0.8552631578947367  0.11363636363636365  0.0  1.0000
  In  In2829    1.0  0.8421052630263157  0.15151515159090911  0.8103706999999999  1.0000
  In  In2830    1.0  0.8552631580263158  0.1439393938636364  0.1896293  1.0000
  Se  Se4243    1.0  0.8421052630263157  0.15151515159090911  0.32365471999999995  1.0000
  Se  Se4244    1.0  0.8552631580263158  0.1439393938636364  0.6763452799999999  1.0000
  Se  Se4245    1.0  0.8421052631578947  0.13636363636363638  0.0  1.0000
  In  In2831    1.0  0.8421052632894737  0.16666666659090912  0.1896293  1.0000
  Se  Se4246    1.0  0.8421052632894737  0.16666666659090912  0.6763452799999999  1.0000
  In  In2832    1.0  0.8552631577631578  0.17424242431818185  0.8103706999999999  1.0000
  Se  Se4247    1.0  0.8552631577631578  0.17424242431818185  0.32365471999999995  1.0000
  Se  Se4248    1.0  0.8552631578947367  0.15909090909090912  0.0  1.0000
  In  In2833    1.0  0.8421052630263157  0.19696969704545458  0.8103706999999999  1.0000
  In  In2834    1.0  0.8552631580263158  0.18939393931818185  0.1896293  1.0000
  Se  Se4249    1.0  0.8421052630263157  0.19696969704545458  0.32365471999999995  1.0000
  Se  Se4250    1.0  0.8552631580263158  0.18939393931818185  0.6763452799999999  1.0000
  Se  Se4251    1.0  0.8421052631578947  0.18181818181818182  0.0  1.0000
  In  In2835    1.0  0.8421052632894737  0.21212121204545456  0.1896293  1.0000
  Se  Se4252    1.0  0.8421052632894737  0.21212121204545456  0.6763452799999999  1.0000
  In  In2836    1.0  0.8552631577631578  0.21969696977272726  0.8103706999999999  1.0000
  Se  Se4253    1.0  0.8552631577631578  0.21969696977272726  0.32365471999999995  1.0000
  Se  Se4254    1.0  0.8552631578947367  0.20454545454545456  0.0  1.0000
  In  In2837    1.0  0.8421052630263157  0.2424242425  0.8103706999999999  1.0000
  In  In2838    1.0  0.8552631580263158  0.2348484847727273  0.1896293  1.0000
  Se  Se4255    1.0  0.8421052630263157  0.2424242425  0.32365471999999995  1.0000
  Se  Se4256    1.0  0.8552631580263158  0.2348484847727273  0.6763452799999999  1.0000
  Se  Se4257    1.0  0.8421052631578947  0.2272727272727273  0.0  1.0000
  In  In2839    1.0  0.8421052632894737  0.2575757575  0.1896293  1.0000
  Se  Se4258    1.0  0.8421052632894737  0.2575757575  0.6763452799999999  1.0000
  In  In2840    1.0  0.8552631577631578  0.2651515152272727  0.8103706999999999  1.0000
  Se  Se4259    1.0  0.8552631577631578  0.2651515152272727  0.32365471999999995  1.0000
  Se  Se4260    1.0  0.8552631578947367  0.25  0.0  1.0000
  In  In2841    1.0  0.8421052630263157  0.28787878795454547  0.8103706999999999  1.0000
  In  In2842    1.0  0.8552631580263158  0.28030303022727276  0.1896293  1.0000
  Se  Se4261    1.0  0.8421052630263157  0.28787878795454547  0.32365471999999995  1.0000
  Se  Se4262    1.0  0.8552631580263158  0.28030303022727276  0.6763452799999999  1.0000
  Se  Se4263    1.0  0.8421052631578947  0.27272727272727276  0.0  1.0000
  In  In2843    1.0  0.8421052632894737  0.3030303029545455  0.1896293  1.0000
  Se  Se4264    1.0  0.8421052632894737  0.3030303029545455  0.6763452799999999  1.0000
  In  In2844    1.0  0.8552631577631578  0.3106060606818183  0.8103706999999999  1.0000
  Se  Se4265    1.0  0.8552631577631578  0.3106060606818183  0.32365471999999995  1.0000
  Se  Se4266    1.0  0.8552631578947367  0.2954545454545455  0.0  1.0000
  In  In2845    1.0  0.8421052630263157  0.33333333340909094  0.8103706999999999  1.0000
  In  In2846    1.0  0.8552631580263158  0.32575757568181823  0.1896293  1.0000
  Se  Se4267    1.0  0.8421052630263157  0.33333333340909094  0.32365471999999995  1.0000
  Se  Se4268    1.0  0.8552631580263158  0.32575757568181823  0.6763452799999999  1.0000
  Se  Se4269    1.0  0.8421052631578947  0.31818181818181823  0.0  1.0000
  In  In2847    1.0  0.8421052632894737  0.34848484840909094  0.1896293  1.0000
  Se  Se4270    1.0  0.8421052632894737  0.34848484840909094  0.6763452799999999  1.0000
  In  In2848    1.0  0.8552631577631578  0.3560606061363637  0.8103706999999999  1.0000
  Se  Se4271    1.0  0.8552631577631578  0.3560606061363637  0.32365471999999995  1.0000
  Se  Se4272    1.0  0.8552631578947367  0.34090909090909094  0.0  1.0000
  In  In2849    1.0  0.8421052630263157  0.3787878788636364  0.8103706999999999  1.0000
  In  In2850    1.0  0.8552631580263158  0.3712121211363637  0.1896293  1.0000
  Se  Se4273    1.0  0.8421052630263157  0.3787878788636364  0.32365471999999995  1.0000
  Se  Se4274    1.0  0.8552631580263158  0.3712121211363637  0.6763452799999999  1.0000
  Se  Se4275    1.0  0.8421052631578947  0.36363636363636365  0.0  1.0000
  In  In2851    1.0  0.8421052632894737  0.3939393938636364  0.1896293  1.0000
  Se  Se4276    1.0  0.8421052632894737  0.3939393938636364  0.6763452799999999  1.0000
  In  In2852    1.0  0.8552631577631578  0.40151515159090917  0.8103706999999999  1.0000
  Se  Se4277    1.0  0.8552631577631578  0.40151515159090917  0.32365471999999995  1.0000
  Se  Se4278    1.0  0.8552631578947367  0.3863636363636364  0.0  1.0000
  In  In2853    1.0  0.8421052630263157  0.4242424243181818  0.8103706999999999  1.0000
  In  In2854    1.0  0.8552631580263158  0.4166666665909091  0.1896293  1.0000
  Se  Se4279    1.0  0.8421052630263157  0.4242424243181818  0.32365471999999995  1.0000
  Se  Se4280    1.0  0.8552631580263158  0.4166666665909091  0.6763452799999999  1.0000
  Se  Se4281    1.0  0.8421052631578947  0.4090909090909091  0.0  1.0000
  In  In2855    1.0  0.8421052632894737  0.4393939393181818  0.1896293  1.0000
  Se  Se4282    1.0  0.8421052632894737  0.4393939393181818  0.6763452799999999  1.0000
  In  In2856    1.0  0.8552631577631578  0.4469696970454546  0.8103706999999999  1.0000
  Se  Se4283    1.0  0.8552631577631578  0.4469696970454546  0.32365471999999995  1.0000
  Se  Se4284    1.0  0.8552631578947367  0.4318181818181819  0.0  1.0000
  In  In2857    1.0  0.8421052630263157  0.4696969697727273  0.8103706999999999  1.0000
  In  In2858    1.0  0.8552631580263158  0.46212121204545453  0.1896293  1.0000
  Se  Se4285    1.0  0.8421052630263157  0.4696969697727273  0.32365471999999995  1.0000
  Se  Se4286    1.0  0.8552631580263158  0.46212121204545453  0.6763452799999999  1.0000
  Se  Se4287    1.0  0.8421052631578947  0.4545454545454546  0.0  1.0000
  In  In2859    1.0  0.8421052632894737  0.4848484847727273  0.1896293  1.0000
  Se  Se4288    1.0  0.8421052632894737  0.4848484847727273  0.6763452799999999  1.0000
  In  In2860    1.0  0.8552631577631578  0.49242424250000005  0.8103706999999999  1.0000
  Se  Se4289    1.0  0.8552631577631578  0.49242424250000005  0.32365471999999995  1.0000
  Se  Se4290    1.0  0.8552631578947367  0.47727272727272735  0.0  1.0000
  In  In2861    1.0  0.8421052630263157  0.5151515152272728  0.8103706999999999  1.0000
  In  In2862    1.0  0.8552631580263158  0.5075757575  0.1896293  1.0000
  Se  Se4291    1.0  0.8421052630263157  0.5151515152272728  0.32365471999999995  1.0000
  Se  Se4292    1.0  0.8552631580263158  0.5075757575  0.6763452799999999  1.0000
  Se  Se4293    1.0  0.8421052631578947  0.5  0.0  1.0000
  In  In2863    1.0  0.8421052632894737  0.5303030302272728  0.1896293  1.0000
  Se  Se4294    1.0  0.8421052632894737  0.5303030302272728  0.6763452799999999  1.0000
  In  In2864    1.0  0.8552631577631578  0.5378787879545455  0.8103706999999999  1.0000
  Se  Se4295    1.0  0.8552631577631578  0.5378787879545455  0.32365471999999995  1.0000
  Se  Se4296    1.0  0.8552631578947367  0.5227272727272728  0.0  1.0000
  In  In2865    1.0  0.8421052630263157  0.5606060606818183  0.8103706999999999  1.0000
  In  In2866    1.0  0.8552631580263158  0.5530303029545455  0.1896293  1.0000
  Se  Se4297    1.0  0.8421052630263157  0.5606060606818183  0.32365471999999995  1.0000
  Se  Se4298    1.0  0.8552631580263158  0.5530303029545455  0.6763452799999999  1.0000
  Se  Se4299    1.0  0.8421052631578947  0.5454545454545455  0.0  1.0000
  In  In2867    1.0  0.8421052632894737  0.5757575756818183  0.1896293  1.0000
  Se  Se4300    1.0  0.8421052632894737  0.5757575756818183  0.6763452799999999  1.0000
  In  In2868    1.0  0.8552631577631578  0.583333333409091  0.8103706999999999  1.0000
  Se  Se4301    1.0  0.8552631577631578  0.583333333409091  0.32365471999999995  1.0000
  Se  Se4302    1.0  0.8552631578947367  0.5681818181818183  0.0  1.0000
  In  In2869    1.0  0.8421052630263157  0.6060606061363637  0.8103706999999999  1.0000
  In  In2870    1.0  0.8552631580263158  0.598484848409091  0.1896293  1.0000
  Se  Se4303    1.0  0.8421052630263157  0.6060606061363637  0.32365471999999995  1.0000
  Se  Se4304    1.0  0.8552631580263158  0.598484848409091  0.6763452799999999  1.0000
  Se  Se4305    1.0  0.8421052631578947  0.590909090909091  0.0  1.0000
  In  In2871    1.0  0.8421052632894737  0.6212121211363637  0.1896293  1.0000
  Se  Se4306    1.0  0.8421052632894737  0.6212121211363637  0.6763452799999999  1.0000
  In  In2872    1.0  0.8552631577631578  0.6287878788636365  0.8103706999999999  1.0000
  Se  Se4307    1.0  0.8552631577631578  0.6287878788636365  0.32365471999999995  1.0000
  Se  Se4308    1.0  0.8552631578947367  0.6136363636363638  0.0  1.0000
  In  In2873    1.0  0.8421052630263157  0.6515151515909091  0.8103706999999999  1.0000
  In  In2874    1.0  0.8552631580263158  0.6439393938636364  0.1896293  1.0000
  Se  Se4309    1.0  0.8421052630263157  0.6515151515909091  0.32365471999999995  1.0000
  Se  Se4310    1.0  0.8552631580263158  0.6439393938636364  0.6763452799999999  1.0000
  Se  Se4311    1.0  0.8421052631578947  0.6363636363636365  0.0  1.0000
  In  In2875    1.0  0.8421052632894737  0.6666666665909092  0.1896293  1.0000
  Se  Se4312    1.0  0.8421052632894737  0.6666666665909092  0.6763452799999999  1.0000
  In  In2876    1.0  0.8552631577631578  0.6742424243181819  0.8103706999999999  1.0000
  Se  Se4313    1.0  0.8552631577631578  0.6742424243181819  0.32365471999999995  1.0000
  Se  Se4314    1.0  0.8552631578947367  0.6590909090909092  0.0  1.0000
  In  In2877    1.0  0.8421052630263157  0.6969696970454546  0.8103706999999999  1.0000
  In  In2878    1.0  0.8552631580263158  0.6893939393181818  0.1896293  1.0000
  Se  Se4315    1.0  0.8421052630263157  0.6969696970454546  0.32365471999999995  1.0000
  Se  Se4316    1.0  0.8552631580263158  0.6893939393181818  0.6763452799999999  1.0000
  Se  Se4317    1.0  0.8421052631578947  0.6818181818181819  0.0  1.0000
  In  In2879    1.0  0.8421052632894737  0.7121212120454546  0.1896293  1.0000
  Se  Se4318    1.0  0.8421052632894737  0.7121212120454546  0.6763452799999999  1.0000
  In  In2880    1.0  0.8552631577631578  0.7196969697727273  0.8103706999999999  1.0000
  Se  Se4319    1.0  0.8552631577631578  0.7196969697727273  0.32365471999999995  1.0000
  Se  Se4320    1.0  0.8552631578947367  0.7045454545454547  0.0  1.0000
  In  In2881    1.0  0.8421052630263157  0.7424242425  0.8103706999999999  1.0000
  In  In2882    1.0  0.8552631580263158  0.7348484847727274  0.1896293  1.0000
  Se  Se4321    1.0  0.8421052630263157  0.7424242425  0.32365471999999995  1.0000
  Se  Se4322    1.0  0.8552631580263158  0.7348484847727274  0.6763452799999999  1.0000
  Se  Se4323    1.0  0.8421052631578947  0.7272727272727273  0.0  1.0000
  In  In2883    1.0  0.8421052632894737  0.7575757575000001  0.1896293  1.0000
  Se  Se4324    1.0  0.8421052632894737  0.7575757575000001  0.6763452799999999  1.0000
  In  In2884    1.0  0.8552631577631578  0.7651515152272729  0.8103706999999999  1.0000
  Se  Se4325    1.0  0.8552631577631578  0.7651515152272729  0.32365471999999995  1.0000
  Se  Se4326    1.0  0.8552631578947367  0.7500000000000001  0.0  1.0000
  In  In2885    1.0  0.8421052630263157  0.7878787879545455  0.8103706999999999  1.0000
  In  In2886    1.0  0.8552631580263158  0.7803030302272728  0.1896293  1.0000
  Se  Se4327    1.0  0.8421052630263157  0.7878787879545455  0.32365471999999995  1.0000
  Se  Se4328    1.0  0.8552631580263158  0.7803030302272728  0.6763452799999999  1.0000
  Se  Se4329    1.0  0.8421052631578947  0.7727272727272728  0.0  1.0000
  In  In2887    1.0  0.8421052632894737  0.8030303029545455  0.1896293  1.0000
  Se  Se4330    1.0  0.8421052632894737  0.8030303029545455  0.6763452799999999  1.0000
  In  In2888    1.0  0.8552631577631578  0.8106060606818183  0.8103706999999999  1.0000
  Se  Se4331    1.0  0.8552631577631578  0.8106060606818183  0.32365471999999995  1.0000
  Se  Se4332    1.0  0.8552631578947367  0.7954545454545455  0.0  1.0000
  In  In2889    1.0  0.8421052630263157  0.833333333409091  0.8103706999999999  1.0000
  In  In2890    1.0  0.8552631580263158  0.8257575756818182  0.1896293  1.0000
  Se  Se4333    1.0  0.8421052630263157  0.833333333409091  0.32365471999999995  1.0000
  Se  Se4334    1.0  0.8552631580263158  0.8257575756818182  0.6763452799999999  1.0000
  Se  Se4335    1.0  0.8421052631578947  0.8181818181818182  0.0  1.0000
  In  In2891    1.0  0.8421052632894737  0.848484848409091  0.1896293  1.0000
  Se  Se4336    1.0  0.8421052632894737  0.848484848409091  0.6763452799999999  1.0000
  In  In2892    1.0  0.8552631577631578  0.8560606061363636  0.8103706999999999  1.0000
  Se  Se4337    1.0  0.8552631577631578  0.8560606061363636  0.32365471999999995  1.0000
  Se  Se4338    1.0  0.8552631578947367  0.840909090909091  0.0  1.0000
  In  In2893    1.0  0.8421052630263157  0.8787878788636366  0.8103706999999999  1.0000
  In  In2894    1.0  0.8552631580263158  0.8712121211363637  0.1896293  1.0000
  Se  Se4339    1.0  0.8421052630263157  0.8787878788636366  0.32365471999999995  1.0000
  Se  Se4340    1.0  0.8552631580263158  0.8712121211363637  0.6763452799999999  1.0000
  Se  Se4341    1.0  0.8421052631578947  0.8636363636363638  0.0  1.0000
  In  In2895    1.0  0.8421052632894737  0.8939393938636365  0.1896293  1.0000
  Se  Se4342    1.0  0.8421052632894737  0.8939393938636365  0.6763452799999999  1.0000
  In  In2896    1.0  0.8552631577631578  0.9015151515909092  0.8103706999999999  1.0000
  Se  Se4343    1.0  0.8552631577631578  0.9015151515909092  0.32365471999999995  1.0000
  Se  Se4344    1.0  0.8552631578947367  0.8863636363636366  0.0  1.0000
  In  In2897    1.0  0.8421052630263157  0.9242424243181819  0.8103706999999999  1.0000
  In  In2898    1.0  0.8552631580263158  0.9166666665909091  0.1896293  1.0000
  Se  Se4345    1.0  0.8421052630263157  0.9242424243181819  0.32365471999999995  1.0000
  Se  Se4346    1.0  0.8552631580263158  0.9166666665909091  0.6763452799999999  1.0000
  Se  Se4347    1.0  0.8421052631578947  0.9090909090909092  0.0  1.0000
  In  In2899    1.0  0.8421052632894737  0.9393939393181818  0.1896293  1.0000
  Se  Se4348    1.0  0.8421052632894737  0.9393939393181818  0.6763452799999999  1.0000
  In  In2900    1.0  0.8552631577631578  0.9469696970454545  0.8103706999999999  1.0000
  Se  Se4349    1.0  0.8552631577631578  0.9469696970454545  0.32365471999999995  1.0000
  Se  Se4350    1.0  0.8552631578947367  0.9318181818181819  0.0  1.0000
  In  In2901    1.0  0.8421052630263157  0.9696969697727275  0.8103706999999999  1.0000
  In  In2902    1.0  0.8552631580263158  0.9621212120454546  0.1896293  1.0000
  Se  Se4351    1.0  0.8421052630263157  0.9696969697727275  0.32365471999999995  1.0000
  Se  Se4352    1.0  0.8552631580263158  0.9621212120454546  0.6763452799999999  1.0000
  Se  Se4353    1.0  0.8421052631578947  0.9545454545454547  0.0  1.0000
  In  In2903    1.0  0.8421052632894737  0.9848484847727275  0.1896293  1.0000
  Se  Se4354    1.0  0.8421052632894737  0.9848484847727275  0.6763452799999999  1.0000
  In  In2904    1.0  0.8552631577631578  0.9924242425  0.8103706999999999  1.0000
  Se  Se4355    1.0  0.8552631577631578  0.9924242425  0.32365471999999995  1.0000
  Se  Se4356    1.0  0.8552631578947367  0.9772727272727274  0.0  1.0000
  In  In2905    1.0  0.8684210524999999  0.01515151522727273  0.8103706999999999  1.0000
  In  In2906    1.0  0.8815789475  0.0075757575  0.1896293  1.0000
  Se  Se4357    1.0  0.8684210524999999  0.01515151522727273  0.32365471999999995  1.0000
  Se  Se4358    1.0  0.8815789475  0.0075757575  0.6763452799999999  1.0000
  Se  Se4359    1.0  0.8684210526315789  0.0  0.0  1.0000
  In  In2907    1.0  0.8684210527631578  0.030303030227272734  0.1896293  1.0000
  Se  Se4360    1.0  0.8684210527631578  0.030303030227272734  0.6763452799999999  1.0000
  In  In2908    1.0  0.8815789472368419  0.03787878795454546  0.8103706999999999  1.0000
  Se  Se4361    1.0  0.8815789472368419  0.03787878795454546  0.32365471999999995  1.0000
  Se  Se4362    1.0  0.8815789473684209  0.022727272727272728  0.0  1.0000
  In  In2909    1.0  0.8684210524999999  0.06060606068181818  0.8103706999999999  1.0000
  In  In2910    1.0  0.8815789475  0.05303030295454546  0.1896293  1.0000
  Se  Se4363    1.0  0.8684210524999999  0.06060606068181818  0.32365471999999995  1.0000
  Se  Se4364    1.0  0.8815789475  0.05303030295454546  0.6763452799999999  1.0000
  Se  Se4365    1.0  0.8684210526315789  0.045454545454545456  0.0  1.0000
  In  In2911    1.0  0.8684210527631578  0.07575757568181819  0.1896293  1.0000
  Se  Se4366    1.0  0.8684210527631578  0.07575757568181819  0.6763452799999999  1.0000
  In  In2912    1.0  0.8815789472368419  0.08333333340909092  0.8103706999999999  1.0000
  Se  Se4367    1.0  0.8815789472368419  0.08333333340909092  0.32365471999999995  1.0000
  Se  Se4368    1.0  0.8815789473684209  0.06818181818181819  0.0  1.0000
  In  In2913    1.0  0.8684210524999999  0.10606060613636366  0.8103706999999999  1.0000
  In  In2914    1.0  0.8815789475  0.09848484840909091  0.1896293  1.0000
  Se  Se4369    1.0  0.8684210524999999  0.10606060613636366  0.32365471999999995  1.0000
  Se  Se4370    1.0  0.8815789475  0.09848484840909091  0.6763452799999999  1.0000
  Se  Se4371    1.0  0.8684210526315789  0.09090909090909091  0.0  1.0000
  In  In2915    1.0  0.8684210527631578  0.12121212113636365  0.1896293  1.0000
  Se  Se4372    1.0  0.8684210527631578  0.12121212113636365  0.6763452799999999  1.0000
  In  In2916    1.0  0.8815789472368419  0.12878787886363638  0.8103706999999999  1.0000
  Se  Se4373    1.0  0.8815789472368419  0.12878787886363638  0.32365471999999995  1.0000
  Se  Se4374    1.0  0.8815789473684209  0.11363636363636365  0.0  1.0000
  In  In2917    1.0  0.8684210524999999  0.15151515159090911  0.8103706999999999  1.0000
  In  In2918    1.0  0.8815789475  0.1439393938636364  0.1896293  1.0000
  Se  Se4375    1.0  0.8684210524999999  0.15151515159090911  0.32365471999999995  1.0000
  Se  Se4376    1.0  0.8815789475  0.1439393938636364  0.6763452799999999  1.0000
  Se  Se4377    1.0  0.8684210526315789  0.13636363636363638  0.0  1.0000
  In  In2919    1.0  0.8684210527631578  0.16666666659090912  0.1896293  1.0000
  Se  Se4378    1.0  0.8684210527631578  0.16666666659090912  0.6763452799999999  1.0000
  In  In2920    1.0  0.8815789472368419  0.17424242431818185  0.8103706999999999  1.0000
  Se  Se4379    1.0  0.8815789472368419  0.17424242431818185  0.32365471999999995  1.0000
  Se  Se4380    1.0  0.8815789473684209  0.15909090909090912  0.0  1.0000
  In  In2921    1.0  0.8684210524999999  0.19696969704545458  0.8103706999999999  1.0000
  In  In2922    1.0  0.8815789475  0.18939393931818185  0.1896293  1.0000
  Se  Se4381    1.0  0.8684210524999999  0.19696969704545458  0.32365471999999995  1.0000
  Se  Se4382    1.0  0.8815789475  0.18939393931818185  0.6763452799999999  1.0000
  Se  Se4383    1.0  0.8684210526315789  0.18181818181818182  0.0  1.0000
  In  In2923    1.0  0.8684210527631578  0.21212121204545456  0.1896293  1.0000
  Se  Se4384    1.0  0.8684210527631578  0.21212121204545456  0.6763452799999999  1.0000
  In  In2924    1.0  0.8815789472368419  0.21969696977272726  0.8103706999999999  1.0000
  Se  Se4385    1.0  0.8815789472368419  0.21969696977272726  0.32365471999999995  1.0000
  Se  Se4386    1.0  0.8815789473684209  0.20454545454545456  0.0  1.0000
  In  In2925    1.0  0.8684210524999999  0.2424242425  0.8103706999999999  1.0000
  In  In2926    1.0  0.8815789475  0.2348484847727273  0.1896293  1.0000
  Se  Se4387    1.0  0.8684210524999999  0.2424242425  0.32365471999999995  1.0000
  Se  Se4388    1.0  0.8815789475  0.2348484847727273  0.6763452799999999  1.0000
  Se  Se4389    1.0  0.8684210526315789  0.2272727272727273  0.0  1.0000
  In  In2927    1.0  0.8684210527631578  0.2575757575  0.1896293  1.0000
  Se  Se4390    1.0  0.8684210527631578  0.2575757575  0.6763452799999999  1.0000
  In  In2928    1.0  0.8815789472368419  0.2651515152272727  0.8103706999999999  1.0000
  Se  Se4391    1.0  0.8815789472368419  0.2651515152272727  0.32365471999999995  1.0000
  Se  Se4392    1.0  0.8815789473684209  0.25  0.0  1.0000
  In  In2929    1.0  0.8684210524999999  0.28787878795454547  0.8103706999999999  1.0000
  In  In2930    1.0  0.8815789475  0.28030303022727276  0.1896293  1.0000
  Se  Se4393    1.0  0.8684210524999999  0.28787878795454547  0.32365471999999995  1.0000
  Se  Se4394    1.0  0.8815789475  0.28030303022727276  0.6763452799999999  1.0000
  Se  Se4395    1.0  0.8684210526315789  0.27272727272727276  0.0  1.0000
  In  In2931    1.0  0.8684210527631578  0.3030303029545455  0.1896293  1.0000
  Se  Se4396    1.0  0.8684210527631578  0.3030303029545455  0.6763452799999999  1.0000
  In  In2932    1.0  0.8815789472368419  0.3106060606818183  0.8103706999999999  1.0000
  Se  Se4397    1.0  0.8815789472368419  0.3106060606818183  0.32365471999999995  1.0000
  Se  Se4398    1.0  0.8815789473684209  0.2954545454545455  0.0  1.0000
  In  In2933    1.0  0.8684210524999999  0.33333333340909094  0.8103706999999999  1.0000
  In  In2934    1.0  0.8815789475  0.32575757568181823  0.1896293  1.0000
  Se  Se4399    1.0  0.8684210524999999  0.33333333340909094  0.32365471999999995  1.0000
  Se  Se4400    1.0  0.8815789475  0.32575757568181823  0.6763452799999999  1.0000
  Se  Se4401    1.0  0.8684210526315789  0.31818181818181823  0.0  1.0000
  In  In2935    1.0  0.8684210527631578  0.34848484840909094  0.1896293  1.0000
  Se  Se4402    1.0  0.8684210527631578  0.34848484840909094  0.6763452799999999  1.0000
  In  In2936    1.0  0.8815789472368419  0.3560606061363637  0.8103706999999999  1.0000
  Se  Se4403    1.0  0.8815789472368419  0.3560606061363637  0.32365471999999995  1.0000
  Se  Se4404    1.0  0.8815789473684209  0.34090909090909094  0.0  1.0000
  In  In2937    1.0  0.8684210524999999  0.3787878788636364  0.8103706999999999  1.0000
  In  In2938    1.0  0.8815789475  0.3712121211363637  0.1896293  1.0000
  Se  Se4405    1.0  0.8684210524999999  0.3787878788636364  0.32365471999999995  1.0000
  Se  Se4406    1.0  0.8815789475  0.3712121211363637  0.6763452799999999  1.0000
  Se  Se4407    1.0  0.8684210526315789  0.36363636363636365  0.0  1.0000
  In  In2939    1.0  0.8684210527631578  0.3939393938636364  0.1896293  1.0000
  Se  Se4408    1.0  0.8684210527631578  0.3939393938636364  0.6763452799999999  1.0000
  In  In2940    1.0  0.8815789472368419  0.40151515159090917  0.8103706999999999  1.0000
  Se  Se4409    1.0  0.8815789472368419  0.40151515159090917  0.32365471999999995  1.0000
  Se  Se4410    1.0  0.8815789473684209  0.3863636363636364  0.0  1.0000
  In  In2941    1.0  0.8684210524999999  0.4242424243181818  0.8103706999999999  1.0000
  In  In2942    1.0  0.8815789475  0.4166666665909091  0.1896293  1.0000
  Se  Se4411    1.0  0.8684210524999999  0.4242424243181818  0.32365471999999995  1.0000
  Se  Se4412    1.0  0.8815789475  0.4166666665909091  0.6763452799999999  1.0000
  Se  Se4413    1.0  0.8684210526315789  0.4090909090909091  0.0  1.0000
  In  In2943    1.0  0.8684210527631578  0.4393939393181818  0.1896293  1.0000
  Se  Se4414    1.0  0.8684210527631578  0.4393939393181818  0.6763452799999999  1.0000
  In  In2944    1.0  0.8815789472368419  0.4469696970454546  0.8103706999999999  1.0000
  Se  Se4415    1.0  0.8815789472368419  0.4469696970454546  0.32365471999999995  1.0000
  Se  Se4416    1.0  0.8815789473684209  0.4318181818181819  0.0  1.0000
  In  In2945    1.0  0.8684210524999999  0.4696969697727273  0.8103706999999999  1.0000
  In  In2946    1.0  0.8815789475  0.46212121204545453  0.1896293  1.0000
  Se  Se4417    1.0  0.8684210524999999  0.4696969697727273  0.32365471999999995  1.0000
  Se  Se4418    1.0  0.8815789475  0.46212121204545453  0.6763452799999999  1.0000
  Se  Se4419    1.0  0.8684210526315789  0.4545454545454546  0.0  1.0000
  In  In2947    1.0  0.8684210527631578  0.4848484847727273  0.1896293  1.0000
  Se  Se4420    1.0  0.8684210527631578  0.4848484847727273  0.6763452799999999  1.0000
  In  In2948    1.0  0.8815789472368419  0.49242424250000005  0.8103706999999999  1.0000
  Se  Se4421    1.0  0.8815789472368419  0.49242424250000005  0.32365471999999995  1.0000
  Se  Se4422    1.0  0.8815789473684209  0.47727272727272735  0.0  1.0000
  In  In2949    1.0  0.8684210524999999  0.5151515152272728  0.8103706999999999  1.0000
  In  In2950    1.0  0.8815789475  0.5075757575  0.1896293  1.0000
  Se  Se4423    1.0  0.8684210524999999  0.5151515152272728  0.32365471999999995  1.0000
  Se  Se4424    1.0  0.8815789475  0.5075757575  0.6763452799999999  1.0000
  Se  Se4425    1.0  0.8684210526315789  0.5  0.0  1.0000
  In  In2951    1.0  0.8684210527631578  0.5303030302272728  0.1896293  1.0000
  Se  Se4426    1.0  0.8684210527631578  0.5303030302272728  0.6763452799999999  1.0000
  In  In2952    1.0  0.8815789472368419  0.5378787879545455  0.8103706999999999  1.0000
  Se  Se4427    1.0  0.8815789472368419  0.5378787879545455  0.32365471999999995  1.0000
  Se  Se4428    1.0  0.8815789473684209  0.5227272727272728  0.0  1.0000
  In  In2953    1.0  0.8684210524999999  0.5606060606818183  0.8103706999999999  1.0000
  In  In2954    1.0  0.8815789475  0.5530303029545455  0.1896293  1.0000
  Se  Se4429    1.0  0.8684210524999999  0.5606060606818183  0.32365471999999995  1.0000
  Se  Se4430    1.0  0.8815789475  0.5530303029545455  0.6763452799999999  1.0000
  Se  Se4431    1.0  0.8684210526315789  0.5454545454545455  0.0  1.0000
  In  In2955    1.0  0.8684210527631578  0.5757575756818183  0.1896293  1.0000
  Se  Se4432    1.0  0.8684210527631578  0.5757575756818183  0.6763452799999999  1.0000
  In  In2956    1.0  0.8815789472368419  0.583333333409091  0.8103706999999999  1.0000
  Se  Se4433    1.0  0.8815789472368419  0.583333333409091  0.32365471999999995  1.0000
  Se  Se4434    1.0  0.8815789473684209  0.5681818181818183  0.0  1.0000
  In  In2957    1.0  0.8684210524999999  0.6060606061363637  0.8103706999999999  1.0000
  In  In2958    1.0  0.8815789475  0.598484848409091  0.1896293  1.0000
  Se  Se4435    1.0  0.8684210524999999  0.6060606061363637  0.32365471999999995  1.0000
  Se  Se4436    1.0  0.8815789475  0.598484848409091  0.6763452799999999  1.0000
  Se  Se4437    1.0  0.8684210526315789  0.590909090909091  0.0  1.0000
  In  In2959    1.0  0.8684210527631578  0.6212121211363637  0.1896293  1.0000
  Se  Se4438    1.0  0.8684210527631578  0.6212121211363637  0.6763452799999999  1.0000
  In  In2960    1.0  0.8815789472368419  0.6287878788636365  0.8103706999999999  1.0000
  Se  Se4439    1.0  0.8815789472368419  0.6287878788636365  0.32365471999999995  1.0000
  Se  Se4440    1.0  0.8815789473684209  0.6136363636363638  0.0  1.0000
  In  In2961    1.0  0.8684210524999999  0.6515151515909091  0.8103706999999999  1.0000
  In  In2962    1.0  0.8815789475  0.6439393938636364  0.1896293  1.0000
  Se  Se4441    1.0  0.8684210524999999  0.6515151515909091  0.32365471999999995  1.0000
  Se  Se4442    1.0  0.8815789475  0.6439393938636364  0.6763452799999999  1.0000
  Se  Se4443    1.0  0.8684210526315789  0.6363636363636365  0.0  1.0000
  In  In2963    1.0  0.8684210527631578  0.6666666665909092  0.1896293  1.0000
  Se  Se4444    1.0  0.8684210527631578  0.6666666665909092  0.6763452799999999  1.0000
  In  In2964    1.0  0.8815789472368419  0.6742424243181819  0.8103706999999999  1.0000
  Se  Se4445    1.0  0.8815789472368419  0.6742424243181819  0.32365471999999995  1.0000
  Se  Se4446    1.0  0.8815789473684209  0.6590909090909092  0.0  1.0000
  In  In2965    1.0  0.8684210524999999  0.6969696970454546  0.8103706999999999  1.0000
  In  In2966    1.0  0.8815789475  0.6893939393181818  0.1896293  1.0000
  Se  Se4447    1.0  0.8684210524999999  0.6969696970454546  0.32365471999999995  1.0000
  Se  Se4448    1.0  0.8815789475  0.6893939393181818  0.6763452799999999  1.0000
  Se  Se4449    1.0  0.8684210526315789  0.6818181818181819  0.0  1.0000
  In  In2967    1.0  0.8684210527631578  0.7121212120454546  0.1896293  1.0000
  Se  Se4450    1.0  0.8684210527631578  0.7121212120454546  0.6763452799999999  1.0000
  In  In2968    1.0  0.8815789472368419  0.7196969697727273  0.8103706999999999  1.0000
  Se  Se4451    1.0  0.8815789472368419  0.7196969697727273  0.32365471999999995  1.0000
  Se  Se4452    1.0  0.8815789473684209  0.7045454545454547  0.0  1.0000
  In  In2969    1.0  0.8684210524999999  0.7424242425  0.8103706999999999  1.0000
  In  In2970    1.0  0.8815789475  0.7348484847727274  0.1896293  1.0000
  Se  Se4453    1.0  0.8684210524999999  0.7424242425  0.32365471999999995  1.0000
  Se  Se4454    1.0  0.8815789475  0.7348484847727274  0.6763452799999999  1.0000
  Se  Se4455    1.0  0.8684210526315789  0.7272727272727273  0.0  1.0000
  In  In2971    1.0  0.8684210527631578  0.7575757575000001  0.1896293  1.0000
  Se  Se4456    1.0  0.8684210527631578  0.7575757575000001  0.6763452799999999  1.0000
  In  In2972    1.0  0.8815789472368419  0.7651515152272729  0.8103706999999999  1.0000
  Se  Se4457    1.0  0.8815789472368419  0.7651515152272729  0.32365471999999995  1.0000
  Se  Se4458    1.0  0.8815789473684209  0.7500000000000001  0.0  1.0000
  In  In2973    1.0  0.8684210524999999  0.7878787879545455  0.8103706999999999  1.0000
  In  In2974    1.0  0.8815789475  0.7803030302272728  0.1896293  1.0000
  Se  Se4459    1.0  0.8684210524999999  0.7878787879545455  0.32365471999999995  1.0000
  Se  Se4460    1.0  0.8815789475  0.7803030302272728  0.6763452799999999  1.0000
  Se  Se4461    1.0  0.8684210526315789  0.7727272727272728  0.0  1.0000
  In  In2975    1.0  0.8684210527631578  0.8030303029545455  0.1896293  1.0000
  Se  Se4462    1.0  0.8684210527631578  0.8030303029545455  0.6763452799999999  1.0000
  In  In2976    1.0  0.8815789472368419  0.8106060606818183  0.8103706999999999  1.0000
  Se  Se4463    1.0  0.8815789472368419  0.8106060606818183  0.32365471999999995  1.0000
  Se  Se4464    1.0  0.8815789473684209  0.7954545454545455  0.0  1.0000
  In  In2977    1.0  0.8684210524999999  0.833333333409091  0.8103706999999999  1.0000
  In  In2978    1.0  0.8815789475  0.8257575756818182  0.1896293  1.0000
  Se  Se4465    1.0  0.8684210524999999  0.833333333409091  0.32365471999999995  1.0000
  Se  Se4466    1.0  0.8815789475  0.8257575756818182  0.6763452799999999  1.0000
  Se  Se4467    1.0  0.8684210526315789  0.8181818181818182  0.0  1.0000
  In  In2979    1.0  0.8684210527631578  0.848484848409091  0.1896293  1.0000
  Se  Se4468    1.0  0.8684210527631578  0.848484848409091  0.6763452799999999  1.0000
  In  In2980    1.0  0.8815789472368419  0.8560606061363636  0.8103706999999999  1.0000
  Se  Se4469    1.0  0.8815789472368419  0.8560606061363636  0.32365471999999995  1.0000
  Se  Se4470    1.0  0.8815789473684209  0.840909090909091  0.0  1.0000
  In  In2981    1.0  0.8684210524999999  0.8787878788636366  0.8103706999999999  1.0000
  In  In2982    1.0  0.8815789475  0.8712121211363637  0.1896293  1.0000
  Se  Se4471    1.0  0.8684210524999999  0.8787878788636366  0.32365471999999995  1.0000
  Se  Se4472    1.0  0.8815789475  0.8712121211363637  0.6763452799999999  1.0000
  Se  Se4473    1.0  0.8684210526315789  0.8636363636363638  0.0  1.0000
  In  In2983    1.0  0.8684210527631578  0.8939393938636365  0.1896293  1.0000
  Se  Se4474    1.0  0.8684210527631578  0.8939393938636365  0.6763452799999999  1.0000
  In  In2984    1.0  0.8815789472368419  0.9015151515909092  0.8103706999999999  1.0000
  Se  Se4475    1.0  0.8815789472368419  0.9015151515909092  0.32365471999999995  1.0000
  Se  Se4476    1.0  0.8815789473684209  0.8863636363636366  0.0  1.0000
  In  In2985    1.0  0.8684210524999999  0.9242424243181819  0.8103706999999999  1.0000
  In  In2986    1.0  0.8815789475  0.9166666665909091  0.1896293  1.0000
  Se  Se4477    1.0  0.8684210524999999  0.9242424243181819  0.32365471999999995  1.0000
  Se  Se4478    1.0  0.8815789475  0.9166666665909091  0.6763452799999999  1.0000
  Se  Se4479    1.0  0.8684210526315789  0.9090909090909092  0.0  1.0000
  In  In2987    1.0  0.8684210527631578  0.9393939393181818  0.1896293  1.0000
  Se  Se4480    1.0  0.8684210527631578  0.9393939393181818  0.6763452799999999  1.0000
  In  In2988    1.0  0.8815789472368419  0.9469696970454545  0.8103706999999999  1.0000
  Se  Se4481    1.0  0.8815789472368419  0.9469696970454545  0.32365471999999995  1.0000
  Se  Se4482    1.0  0.8815789473684209  0.9318181818181819  0.0  1.0000
  In  In2989    1.0  0.8684210524999999  0.9696969697727275  0.8103706999999999  1.0000
  In  In2990    1.0  0.8815789475  0.9621212120454546  0.1896293  1.0000
  Se  Se4483    1.0  0.8684210524999999  0.9696969697727275  0.32365471999999995  1.0000
  Se  Se4484    1.0  0.8815789475  0.9621212120454546  0.6763452799999999  1.0000
  Se  Se4485    1.0  0.8684210526315789  0.9545454545454547  0.0  1.0000
  In  In2991    1.0  0.8684210527631578  0.9848484847727275  0.1896293  1.0000
  Se  Se4486    1.0  0.8684210527631578  0.9848484847727275  0.6763452799999999  1.0000
  In  In2992    1.0  0.8815789472368419  0.9924242425  0.8103706999999999  1.0000
  Se  Se4487    1.0  0.8815789472368419  0.9924242425  0.32365471999999995  1.0000
  Se  Se4488    1.0  0.8815789473684209  0.9772727272727274  0.0  1.0000
  In  In2993    1.0  0.8947368419736841  0.01515151522727273  0.8103706999999999  1.0000
  In  In2994    1.0  0.9078947369736842  0.0075757575  0.1896293  1.0000
  Se  Se4489    1.0  0.8947368419736841  0.01515151522727273  0.32365471999999995  1.0000
  Se  Se4490    1.0  0.9078947369736842  0.0075757575  0.6763452799999999  1.0000
  Se  Se4491    1.0  0.894736842105263  0.0  0.0  1.0000
  In  In2995    1.0  0.894736842236842  0.030303030227272734  0.1896293  1.0000
  Se  Se4492    1.0  0.894736842236842  0.030303030227272734  0.6763452799999999  1.0000
  In  In2996    1.0  0.9078947367105261  0.03787878795454546  0.8103706999999999  1.0000
  Se  Se4493    1.0  0.9078947367105261  0.03787878795454546  0.32365471999999995  1.0000
  Se  Se4494    1.0  0.9078947368421052  0.022727272727272728  0.0  1.0000
  In  In2997    1.0  0.8947368419736841  0.06060606068181818  0.8103706999999999  1.0000
  In  In2998    1.0  0.9078947369736842  0.05303030295454546  0.1896293  1.0000
  Se  Se4495    1.0  0.8947368419736841  0.06060606068181818  0.32365471999999995  1.0000
  Se  Se4496    1.0  0.9078947369736842  0.05303030295454546  0.6763452799999999  1.0000
  Se  Se4497    1.0  0.894736842105263  0.045454545454545456  0.0  1.0000
  In  In2999    1.0  0.894736842236842  0.07575757568181819  0.1896293  1.0000
  Se  Se4498    1.0  0.894736842236842  0.07575757568181819  0.6763452799999999  1.0000
  In  In3000    1.0  0.9078947367105261  0.08333333340909092  0.8103706999999999  1.0000
  Se  Se4499    1.0  0.9078947367105261  0.08333333340909092  0.32365471999999995  1.0000
  Se  Se4500    1.0  0.9078947368421052  0.06818181818181819  0.0  1.0000
  In  In3001    1.0  0.8947368419736841  0.10606060613636366  0.8103706999999999  1.0000
  In  In3002    1.0  0.9078947369736842  0.09848484840909091  0.1896293  1.0000
  Se  Se4501    1.0  0.8947368419736841  0.10606060613636366  0.32365471999999995  1.0000
  Se  Se4502    1.0  0.9078947369736842  0.09848484840909091  0.6763452799999999  1.0000
  Se  Se4503    1.0  0.894736842105263  0.09090909090909091  0.0  1.0000
  In  In3003    1.0  0.894736842236842  0.12121212113636365  0.1896293  1.0000
  Se  Se4504    1.0  0.894736842236842  0.12121212113636365  0.6763452799999999  1.0000
  In  In3004    1.0  0.9078947367105261  0.12878787886363638  0.8103706999999999  1.0000
  Se  Se4505    1.0  0.9078947367105261  0.12878787886363638  0.32365471999999995  1.0000
  Se  Se4506    1.0  0.9078947368421052  0.11363636363636365  0.0  1.0000
  In  In3005    1.0  0.8947368419736841  0.15151515159090911  0.8103706999999999  1.0000
  In  In3006    1.0  0.9078947369736842  0.1439393938636364  0.1896293  1.0000
  Se  Se4507    1.0  0.8947368419736841  0.15151515159090911  0.32365471999999995  1.0000
  Se  Se4508    1.0  0.9078947369736842  0.1439393938636364  0.6763452799999999  1.0000
  Se  Se4509    1.0  0.894736842105263  0.13636363636363638  0.0  1.0000
  In  In3007    1.0  0.894736842236842  0.16666666659090912  0.1896293  1.0000
  Se  Se4510    1.0  0.894736842236842  0.16666666659090912  0.6763452799999999  1.0000
  In  In3008    1.0  0.9078947367105261  0.17424242431818185  0.8103706999999999  1.0000
  Se  Se4511    1.0  0.9078947367105261  0.17424242431818185  0.32365471999999995  1.0000
  Se  Se4512    1.0  0.9078947368421052  0.15909090909090912  0.0  1.0000
  In  In3009    1.0  0.8947368419736841  0.19696969704545458  0.8103706999999999  1.0000
  In  In3010    1.0  0.9078947369736842  0.18939393931818185  0.1896293  1.0000
  Se  Se4513    1.0  0.8947368419736841  0.19696969704545458  0.32365471999999995  1.0000
  Se  Se4514    1.0  0.9078947369736842  0.18939393931818185  0.6763452799999999  1.0000
  Se  Se4515    1.0  0.894736842105263  0.18181818181818182  0.0  1.0000
  In  In3011    1.0  0.894736842236842  0.21212121204545456  0.1896293  1.0000
  Se  Se4516    1.0  0.894736842236842  0.21212121204545456  0.6763452799999999  1.0000
  In  In3012    1.0  0.9078947367105261  0.21969696977272726  0.8103706999999999  1.0000
  Se  Se4517    1.0  0.9078947367105261  0.21969696977272726  0.32365471999999995  1.0000
  Se  Se4518    1.0  0.9078947368421052  0.20454545454545456  0.0  1.0000
  In  In3013    1.0  0.8947368419736841  0.2424242425  0.8103706999999999  1.0000
  In  In3014    1.0  0.9078947369736842  0.2348484847727273  0.1896293  1.0000
  Se  Se4519    1.0  0.8947368419736841  0.2424242425  0.32365471999999995  1.0000
  Se  Se4520    1.0  0.9078947369736842  0.2348484847727273  0.6763452799999999  1.0000
  Se  Se4521    1.0  0.894736842105263  0.2272727272727273  0.0  1.0000
  In  In3015    1.0  0.894736842236842  0.2575757575  0.1896293  1.0000
  Se  Se4522    1.0  0.894736842236842  0.2575757575  0.6763452799999999  1.0000
  In  In3016    1.0  0.9078947367105261  0.2651515152272727  0.8103706999999999  1.0000
  Se  Se4523    1.0  0.9078947367105261  0.2651515152272727  0.32365471999999995  1.0000
  Se  Se4524    1.0  0.9078947368421052  0.25  0.0  1.0000
  In  In3017    1.0  0.8947368419736841  0.28787878795454547  0.8103706999999999  1.0000
  In  In3018    1.0  0.9078947369736842  0.28030303022727276  0.1896293  1.0000
  Se  Se4525    1.0  0.8947368419736841  0.28787878795454547  0.32365471999999995  1.0000
  Se  Se4526    1.0  0.9078947369736842  0.28030303022727276  0.6763452799999999  1.0000
  Se  Se4527    1.0  0.894736842105263  0.27272727272727276  0.0  1.0000
  In  In3019    1.0  0.894736842236842  0.3030303029545455  0.1896293  1.0000
  Se  Se4528    1.0  0.894736842236842  0.3030303029545455  0.6763452799999999  1.0000
  In  In3020    1.0  0.9078947367105261  0.3106060606818183  0.8103706999999999  1.0000
  Se  Se4529    1.0  0.9078947367105261  0.3106060606818183  0.32365471999999995  1.0000
  Se  Se4530    1.0  0.9078947368421052  0.2954545454545455  0.0  1.0000
  In  In3021    1.0  0.8947368419736841  0.33333333340909094  0.8103706999999999  1.0000
  In  In3022    1.0  0.9078947369736842  0.32575757568181823  0.1896293  1.0000
  Se  Se4531    1.0  0.8947368419736841  0.33333333340909094  0.32365471999999995  1.0000
  Se  Se4532    1.0  0.9078947369736842  0.32575757568181823  0.6763452799999999  1.0000
  Se  Se4533    1.0  0.894736842105263  0.31818181818181823  0.0  1.0000
  In  In3023    1.0  0.894736842236842  0.34848484840909094  0.1896293  1.0000
  Se  Se4534    1.0  0.894736842236842  0.34848484840909094  0.6763452799999999  1.0000
  In  In3024    1.0  0.9078947367105261  0.3560606061363637  0.8103706999999999  1.0000
  Se  Se4535    1.0  0.9078947367105261  0.3560606061363637  0.32365471999999995  1.0000
  Se  Se4536    1.0  0.9078947368421052  0.34090909090909094  0.0  1.0000
  In  In3025    1.0  0.8947368419736841  0.3787878788636364  0.8103706999999999  1.0000
  In  In3026    1.0  0.9078947369736842  0.3712121211363637  0.1896293  1.0000
  Se  Se4537    1.0  0.8947368419736841  0.3787878788636364  0.32365471999999995  1.0000
  Se  Se4538    1.0  0.9078947369736842  0.3712121211363637  0.6763452799999999  1.0000
  Se  Se4539    1.0  0.894736842105263  0.36363636363636365  0.0  1.0000
  In  In3027    1.0  0.894736842236842  0.3939393938636364  0.1896293  1.0000
  Se  Se4540    1.0  0.894736842236842  0.3939393938636364  0.6763452799999999  1.0000
  In  In3028    1.0  0.9078947367105261  0.40151515159090917  0.8103706999999999  1.0000
  Se  Se4541    1.0  0.9078947367105261  0.40151515159090917  0.32365471999999995  1.0000
  Se  Se4542    1.0  0.9078947368421052  0.3863636363636364  0.0  1.0000
  In  In3029    1.0  0.8947368419736841  0.4242424243181818  0.8103706999999999  1.0000
  In  In3030    1.0  0.9078947369736842  0.4166666665909091  0.1896293  1.0000
  Se  Se4543    1.0  0.8947368419736841  0.4242424243181818  0.32365471999999995  1.0000
  Se  Se4544    1.0  0.9078947369736842  0.4166666665909091  0.6763452799999999  1.0000
  Se  Se4545    1.0  0.894736842105263  0.4090909090909091  0.0  1.0000
  In  In3031    1.0  0.894736842236842  0.4393939393181818  0.1896293  1.0000
  Se  Se4546    1.0  0.894736842236842  0.4393939393181818  0.6763452799999999  1.0000
  In  In3032    1.0  0.9078947367105261  0.4469696970454546  0.8103706999999999  1.0000
  Se  Se4547    1.0  0.9078947367105261  0.4469696970454546  0.32365471999999995  1.0000
  Se  Se4548    1.0  0.9078947368421052  0.4318181818181819  0.0  1.0000
  In  In3033    1.0  0.8947368419736841  0.4696969697727273  0.8103706999999999  1.0000
  In  In3034    1.0  0.9078947369736842  0.46212121204545453  0.1896293  1.0000
  Se  Se4549    1.0  0.8947368419736841  0.4696969697727273  0.32365471999999995  1.0000
  Se  Se4550    1.0  0.9078947369736842  0.46212121204545453  0.6763452799999999  1.0000
  Se  Se4551    1.0  0.894736842105263  0.4545454545454546  0.0  1.0000
  In  In3035    1.0  0.894736842236842  0.4848484847727273  0.1896293  1.0000
  Se  Se4552    1.0  0.894736842236842  0.4848484847727273  0.6763452799999999  1.0000
  In  In3036    1.0  0.9078947367105261  0.49242424250000005  0.8103706999999999  1.0000
  Se  Se4553    1.0  0.9078947367105261  0.49242424250000005  0.32365471999999995  1.0000
  Se  Se4554    1.0  0.9078947368421052  0.47727272727272735  0.0  1.0000
  In  In3037    1.0  0.8947368419736841  0.5151515152272728  0.8103706999999999  1.0000
  In  In3038    1.0  0.9078947369736842  0.5075757575  0.1896293  1.0000
  Se  Se4555    1.0  0.8947368419736841  0.5151515152272728  0.32365471999999995  1.0000
  Se  Se4556    1.0  0.9078947369736842  0.5075757575  0.6763452799999999  1.0000
  Se  Se4557    1.0  0.894736842105263  0.5  0.0  1.0000
  In  In3039    1.0  0.894736842236842  0.5303030302272728  0.1896293  1.0000
  Se  Se4558    1.0  0.894736842236842  0.5303030302272728  0.6763452799999999  1.0000
  In  In3040    1.0  0.9078947367105261  0.5378787879545455  0.8103706999999999  1.0000
  Se  Se4559    1.0  0.9078947367105261  0.5378787879545455  0.32365471999999995  1.0000
  Se  Se4560    1.0  0.9078947368421052  0.5227272727272728  0.0  1.0000
  In  In3041    1.0  0.8947368419736841  0.5606060606818183  0.8103706999999999  1.0000
  In  In3042    1.0  0.9078947369736842  0.5530303029545455  0.1896293  1.0000
  Se  Se4561    1.0  0.8947368419736841  0.5606060606818183  0.32365471999999995  1.0000
  Se  Se4562    1.0  0.9078947369736842  0.5530303029545455  0.6763452799999999  1.0000
  Se  Se4563    1.0  0.894736842105263  0.5454545454545455  0.0  1.0000
  In  In3043    1.0  0.894736842236842  0.5757575756818183  0.1896293  1.0000
  Se  Se4564    1.0  0.894736842236842  0.5757575756818183  0.6763452799999999  1.0000
  In  In3044    1.0  0.9078947367105261  0.583333333409091  0.8103706999999999  1.0000
  Se  Se4565    1.0  0.9078947367105261  0.583333333409091  0.32365471999999995  1.0000
  Se  Se4566    1.0  0.9078947368421052  0.5681818181818183  0.0  1.0000
  In  In3045    1.0  0.8947368419736841  0.6060606061363637  0.8103706999999999  1.0000
  In  In3046    1.0  0.9078947369736842  0.598484848409091  0.1896293  1.0000
  Se  Se4567    1.0  0.8947368419736841  0.6060606061363637  0.32365471999999995  1.0000
  Se  Se4568    1.0  0.9078947369736842  0.598484848409091  0.6763452799999999  1.0000
  Se  Se4569    1.0  0.894736842105263  0.590909090909091  0.0  1.0000
  In  In3047    1.0  0.894736842236842  0.6212121211363637  0.1896293  1.0000
  Se  Se4570    1.0  0.894736842236842  0.6212121211363637  0.6763452799999999  1.0000
  In  In3048    1.0  0.9078947367105261  0.6287878788636365  0.8103706999999999  1.0000
  Se  Se4571    1.0  0.9078947367105261  0.6287878788636365  0.32365471999999995  1.0000
  Se  Se4572    1.0  0.9078947368421052  0.6136363636363638  0.0  1.0000
  In  In3049    1.0  0.8947368419736841  0.6515151515909091  0.8103706999999999  1.0000
  In  In3050    1.0  0.9078947369736842  0.6439393938636364  0.1896293  1.0000
  Se  Se4573    1.0  0.8947368419736841  0.6515151515909091  0.32365471999999995  1.0000
  Se  Se4574    1.0  0.9078947369736842  0.6439393938636364  0.6763452799999999  1.0000
  Se  Se4575    1.0  0.894736842105263  0.6363636363636365  0.0  1.0000
  In  In3051    1.0  0.894736842236842  0.6666666665909092  0.1896293  1.0000
  Se  Se4576    1.0  0.894736842236842  0.6666666665909092  0.6763452799999999  1.0000
  In  In3052    1.0  0.9078947367105261  0.6742424243181819  0.8103706999999999  1.0000
  Se  Se4577    1.0  0.9078947367105261  0.6742424243181819  0.32365471999999995  1.0000
  Se  Se4578    1.0  0.9078947368421052  0.6590909090909092  0.0  1.0000
  In  In3053    1.0  0.8947368419736841  0.6969696970454546  0.8103706999999999  1.0000
  In  In3054    1.0  0.9078947369736842  0.6893939393181818  0.1896293  1.0000
  Se  Se4579    1.0  0.8947368419736841  0.6969696970454546  0.32365471999999995  1.0000
  Se  Se4580    1.0  0.9078947369736842  0.6893939393181818  0.6763452799999999  1.0000
  Se  Se4581    1.0  0.894736842105263  0.6818181818181819  0.0  1.0000
  In  In3055    1.0  0.894736842236842  0.7121212120454546  0.1896293  1.0000
  Se  Se4582    1.0  0.894736842236842  0.7121212120454546  0.6763452799999999  1.0000
  In  In3056    1.0  0.9078947367105261  0.7196969697727273  0.8103706999999999  1.0000
  Se  Se4583    1.0  0.9078947367105261  0.7196969697727273  0.32365471999999995  1.0000
  Se  Se4584    1.0  0.9078947368421052  0.7045454545454547  0.0  1.0000
  In  In3057    1.0  0.8947368419736841  0.7424242425  0.8103706999999999  1.0000
  In  In3058    1.0  0.9078947369736842  0.7348484847727274  0.1896293  1.0000
  Se  Se4585    1.0  0.8947368419736841  0.7424242425  0.32365471999999995  1.0000
  Se  Se4586    1.0  0.9078947369736842  0.7348484847727274  0.6763452799999999  1.0000
  Se  Se4587    1.0  0.894736842105263  0.7272727272727273  0.0  1.0000
  In  In3059    1.0  0.894736842236842  0.7575757575000001  0.1896293  1.0000
  Se  Se4588    1.0  0.894736842236842  0.7575757575000001  0.6763452799999999  1.0000
  In  In3060    1.0  0.9078947367105261  0.7651515152272729  0.8103706999999999  1.0000
  Se  Se4589    1.0  0.9078947367105261  0.7651515152272729  0.32365471999999995  1.0000
  Se  Se4590    1.0  0.9078947368421052  0.7500000000000001  0.0  1.0000
  In  In3061    1.0  0.8947368419736841  0.7878787879545455  0.8103706999999999  1.0000
  In  In3062    1.0  0.9078947369736842  0.7803030302272728  0.1896293  1.0000
  Se  Se4591    1.0  0.8947368419736841  0.7878787879545455  0.32365471999999995  1.0000
  Se  Se4592    1.0  0.9078947369736842  0.7803030302272728  0.6763452799999999  1.0000
  Se  Se4593    1.0  0.894736842105263  0.7727272727272728  0.0  1.0000
  In  In3063    1.0  0.894736842236842  0.8030303029545455  0.1896293  1.0000
  Se  Se4594    1.0  0.894736842236842  0.8030303029545455  0.6763452799999999  1.0000
  In  In3064    1.0  0.9078947367105261  0.8106060606818183  0.8103706999999999  1.0000
  Se  Se4595    1.0  0.9078947367105261  0.8106060606818183  0.32365471999999995  1.0000
  Se  Se4596    1.0  0.9078947368421052  0.7954545454545455  0.0  1.0000
  In  In3065    1.0  0.8947368419736841  0.833333333409091  0.8103706999999999  1.0000
  In  In3066    1.0  0.9078947369736842  0.8257575756818182  0.1896293  1.0000
  Se  Se4597    1.0  0.8947368419736841  0.833333333409091  0.32365471999999995  1.0000
  Se  Se4598    1.0  0.9078947369736842  0.8257575756818182  0.6763452799999999  1.0000
  Se  Se4599    1.0  0.894736842105263  0.8181818181818182  0.0  1.0000
  In  In3067    1.0  0.894736842236842  0.848484848409091  0.1896293  1.0000
  Se  Se4600    1.0  0.894736842236842  0.848484848409091  0.6763452799999999  1.0000
  In  In3068    1.0  0.9078947367105261  0.8560606061363636  0.8103706999999999  1.0000
  Se  Se4601    1.0  0.9078947367105261  0.8560606061363636  0.32365471999999995  1.0000
  Se  Se4602    1.0  0.9078947368421052  0.840909090909091  0.0  1.0000
  In  In3069    1.0  0.8947368419736841  0.8787878788636366  0.8103706999999999  1.0000
  In  In3070    1.0  0.9078947369736842  0.8712121211363637  0.1896293  1.0000
  Se  Se4603    1.0  0.8947368419736841  0.8787878788636366  0.32365471999999995  1.0000
  Se  Se4604    1.0  0.9078947369736842  0.8712121211363637  0.6763452799999999  1.0000
  Se  Se4605    1.0  0.894736842105263  0.8636363636363638  0.0  1.0000
  In  In3071    1.0  0.894736842236842  0.8939393938636365  0.1896293  1.0000
  Se  Se4606    1.0  0.894736842236842  0.8939393938636365  0.6763452799999999  1.0000
  In  In3072    1.0  0.9078947367105261  0.9015151515909092  0.8103706999999999  1.0000
  Se  Se4607    1.0  0.9078947367105261  0.9015151515909092  0.32365471999999995  1.0000
  Se  Se4608    1.0  0.9078947368421052  0.8863636363636366  0.0  1.0000
  In  In3073    1.0  0.8947368419736841  0.9242424243181819  0.8103706999999999  1.0000
  In  In3074    1.0  0.9078947369736842  0.9166666665909091  0.1896293  1.0000
  Se  Se4609    1.0  0.8947368419736841  0.9242424243181819  0.32365471999999995  1.0000
  Se  Se4610    1.0  0.9078947369736842  0.9166666665909091  0.6763452799999999  1.0000
  Se  Se4611    1.0  0.894736842105263  0.9090909090909092  0.0  1.0000
  In  In3075    1.0  0.894736842236842  0.9393939393181818  0.1896293  1.0000
  Se  Se4612    1.0  0.894736842236842  0.9393939393181818  0.6763452799999999  1.0000
  In  In3076    1.0  0.9078947367105261  0.9469696970454545  0.8103706999999999  1.0000
  Se  Se4613    1.0  0.9078947367105261  0.9469696970454545  0.32365471999999995  1.0000
  Se  Se4614    1.0  0.9078947368421052  0.9318181818181819  0.0  1.0000
  In  In3077    1.0  0.8947368419736841  0.9696969697727275  0.8103706999999999  1.0000
  In  In3078    1.0  0.9078947369736842  0.9621212120454546  0.1896293  1.0000
  Se  Se4615    1.0  0.8947368419736841  0.9696969697727275  0.32365471999999995  1.0000
  Se  Se4616    1.0  0.9078947369736842  0.9621212120454546  0.6763452799999999  1.0000
  Se  Se4617    1.0  0.894736842105263  0.9545454545454547  0.0  1.0000
  In  In3079    1.0  0.894736842236842  0.9848484847727275  0.1896293  1.0000
  Se  Se4618    1.0  0.894736842236842  0.9848484847727275  0.6763452799999999  1.0000
  In  In3080    1.0  0.9078947367105261  0.9924242425  0.8103706999999999  1.0000
  Se  Se4619    1.0  0.9078947367105261  0.9924242425  0.32365471999999995  1.0000
  Se  Se4620    1.0  0.9078947368421052  0.9772727272727274  0.0  1.0000
  In  In3081    1.0  0.9210526314473683  0.01515151522727273  0.8103706999999999  1.0000
  In  In3082    1.0  0.9342105264473684  0.0075757575  0.1896293  1.0000
  Se  Se4621    1.0  0.9210526314473683  0.01515151522727273  0.32365471999999995  1.0000
  Se  Se4622    1.0  0.9342105264473684  0.0075757575  0.6763452799999999  1.0000
  Se  Se4623    1.0  0.9210526315789472  0.0  0.0  1.0000
  In  In3083    1.0  0.9210526317105262  0.030303030227272734  0.1896293  1.0000
  Se  Se4624    1.0  0.9210526317105262  0.030303030227272734  0.6763452799999999  1.0000
  In  In3084    1.0  0.9342105261842103  0.03787878795454546  0.8103706999999999  1.0000
  Se  Se4625    1.0  0.9342105261842103  0.03787878795454546  0.32365471999999995  1.0000
  Se  Se4626    1.0  0.9342105263157894  0.022727272727272728  0.0  1.0000
  In  In3085    1.0  0.9210526314473683  0.06060606068181818  0.8103706999999999  1.0000
  In  In3086    1.0  0.9342105264473684  0.05303030295454546  0.1896293  1.0000
  Se  Se4627    1.0  0.9210526314473683  0.06060606068181818  0.32365471999999995  1.0000
  Se  Se4628    1.0  0.9342105264473684  0.05303030295454546  0.6763452799999999  1.0000
  Se  Se4629    1.0  0.9210526315789472  0.045454545454545456  0.0  1.0000
  In  In3087    1.0  0.9210526317105262  0.07575757568181819  0.1896293  1.0000
  Se  Se4630    1.0  0.9210526317105262  0.07575757568181819  0.6763452799999999  1.0000
  In  In3088    1.0  0.9342105261842103  0.08333333340909092  0.8103706999999999  1.0000
  Se  Se4631    1.0  0.9342105261842103  0.08333333340909092  0.32365471999999995  1.0000
  Se  Se4632    1.0  0.9342105263157894  0.06818181818181819  0.0  1.0000
  In  In3089    1.0  0.9210526314473683  0.10606060613636366  0.8103706999999999  1.0000
  In  In3090    1.0  0.9342105264473684  0.09848484840909091  0.1896293  1.0000
  Se  Se4633    1.0  0.9210526314473683  0.10606060613636366  0.32365471999999995  1.0000
  Se  Se4634    1.0  0.9342105264473684  0.09848484840909091  0.6763452799999999  1.0000
  Se  Se4635    1.0  0.9210526315789472  0.09090909090909091  0.0  1.0000
  In  In3091    1.0  0.9210526317105262  0.12121212113636365  0.1896293  1.0000
  Se  Se4636    1.0  0.9210526317105262  0.12121212113636365  0.6763452799999999  1.0000
  In  In3092    1.0  0.9342105261842103  0.12878787886363638  0.8103706999999999  1.0000
  Se  Se4637    1.0  0.9342105261842103  0.12878787886363638  0.32365471999999995  1.0000
  Se  Se4638    1.0  0.9342105263157894  0.11363636363636365  0.0  1.0000
  In  In3093    1.0  0.9210526314473683  0.15151515159090911  0.8103706999999999  1.0000
  In  In3094    1.0  0.9342105264473684  0.1439393938636364  0.1896293  1.0000
  Se  Se4639    1.0  0.9210526314473683  0.15151515159090911  0.32365471999999995  1.0000
  Se  Se4640    1.0  0.9342105264473684  0.1439393938636364  0.6763452799999999  1.0000
  Se  Se4641    1.0  0.9210526315789472  0.13636363636363638  0.0  1.0000
  In  In3095    1.0  0.9210526317105262  0.16666666659090912  0.1896293  1.0000
  Se  Se4642    1.0  0.9210526317105262  0.16666666659090912  0.6763452799999999  1.0000
  In  In3096    1.0  0.9342105261842103  0.17424242431818185  0.8103706999999999  1.0000
  Se  Se4643    1.0  0.9342105261842103  0.17424242431818185  0.32365471999999995  1.0000
  Se  Se4644    1.0  0.9342105263157894  0.15909090909090912  0.0  1.0000
  In  In3097    1.0  0.9210526314473683  0.19696969704545458  0.8103706999999999  1.0000
  In  In3098    1.0  0.9342105264473684  0.18939393931818185  0.1896293  1.0000
  Se  Se4645    1.0  0.9210526314473683  0.19696969704545458  0.32365471999999995  1.0000
  Se  Se4646    1.0  0.9342105264473684  0.18939393931818185  0.6763452799999999  1.0000
  Se  Se4647    1.0  0.9210526315789472  0.18181818181818182  0.0  1.0000
  In  In3099    1.0  0.9210526317105262  0.21212121204545456  0.1896293  1.0000
  Se  Se4648    1.0  0.9210526317105262  0.21212121204545456  0.6763452799999999  1.0000
  In  In3100    1.0  0.9342105261842103  0.21969696977272726  0.8103706999999999  1.0000
  Se  Se4649    1.0  0.9342105261842103  0.21969696977272726  0.32365471999999995  1.0000
  Se  Se4650    1.0  0.9342105263157894  0.20454545454545456  0.0  1.0000
  In  In3101    1.0  0.9210526314473683  0.2424242425  0.8103706999999999  1.0000
  In  In3102    1.0  0.9342105264473684  0.2348484847727273  0.1896293  1.0000
  Se  Se4651    1.0  0.9210526314473683  0.2424242425  0.32365471999999995  1.0000
  Se  Se4652    1.0  0.9342105264473684  0.2348484847727273  0.6763452799999999  1.0000
  Se  Se4653    1.0  0.9210526315789472  0.2272727272727273  0.0  1.0000
  In  In3103    1.0  0.9210526317105262  0.2575757575  0.1896293  1.0000
  Se  Se4654    1.0  0.9210526317105262  0.2575757575  0.6763452799999999  1.0000
  In  In3104    1.0  0.9342105261842103  0.2651515152272727  0.8103706999999999  1.0000
  Se  Se4655    1.0  0.9342105261842103  0.2651515152272727  0.32365471999999995  1.0000
  Se  Se4656    1.0  0.9342105263157894  0.25  0.0  1.0000
  In  In3105    1.0  0.9210526314473683  0.28787878795454547  0.8103706999999999  1.0000
  In  In3106    1.0  0.9342105264473684  0.28030303022727276  0.1896293  1.0000
  Se  Se4657    1.0  0.9210526314473683  0.28787878795454547  0.32365471999999995  1.0000
  Se  Se4658    1.0  0.9342105264473684  0.28030303022727276  0.6763452799999999  1.0000
  Se  Se4659    1.0  0.9210526315789472  0.27272727272727276  0.0  1.0000
  In  In3107    1.0  0.9210526317105262  0.3030303029545455  0.1896293  1.0000
  Se  Se4660    1.0  0.9210526317105262  0.3030303029545455  0.6763452799999999  1.0000
  In  In3108    1.0  0.9342105261842103  0.3106060606818183  0.8103706999999999  1.0000
  Se  Se4661    1.0  0.9342105261842103  0.3106060606818183  0.32365471999999995  1.0000
  Se  Se4662    1.0  0.9342105263157894  0.2954545454545455  0.0  1.0000
  In  In3109    1.0  0.9210526314473683  0.33333333340909094  0.8103706999999999  1.0000
  In  In3110    1.0  0.9342105264473684  0.32575757568181823  0.1896293  1.0000
  Se  Se4663    1.0  0.9210526314473683  0.33333333340909094  0.32365471999999995  1.0000
  Se  Se4664    1.0  0.9342105264473684  0.32575757568181823  0.6763452799999999  1.0000
  Se  Se4665    1.0  0.9210526315789472  0.31818181818181823  0.0  1.0000
  In  In3111    1.0  0.9210526317105262  0.34848484840909094  0.1896293  1.0000
  Se  Se4666    1.0  0.9210526317105262  0.34848484840909094  0.6763452799999999  1.0000
  In  In3112    1.0  0.9342105261842103  0.3560606061363637  0.8103706999999999  1.0000
  Se  Se4667    1.0  0.9342105261842103  0.3560606061363637  0.32365471999999995  1.0000
  Se  Se4668    1.0  0.9342105263157894  0.34090909090909094  0.0  1.0000
  In  In3113    1.0  0.9210526314473683  0.3787878788636364  0.8103706999999999  1.0000
  In  In3114    1.0  0.9342105264473684  0.3712121211363637  0.1896293  1.0000
  Se  Se4669    1.0  0.9210526314473683  0.3787878788636364  0.32365471999999995  1.0000
  Se  Se4670    1.0  0.9342105264473684  0.3712121211363637  0.6763452799999999  1.0000
  Se  Se4671    1.0  0.9210526315789472  0.36363636363636365  0.0  1.0000
  In  In3115    1.0  0.9210526317105262  0.3939393938636364  0.1896293  1.0000
  Se  Se4672    1.0  0.9210526317105262  0.3939393938636364  0.6763452799999999  1.0000
  In  In3116    1.0  0.9342105261842103  0.40151515159090917  0.8103706999999999  1.0000
  Se  Se4673    1.0  0.9342105261842103  0.40151515159090917  0.32365471999999995  1.0000
  Se  Se4674    1.0  0.9342105263157894  0.3863636363636364  0.0  1.0000
  In  In3117    1.0  0.9210526314473683  0.4242424243181818  0.8103706999999999  1.0000
  In  In3118    1.0  0.9342105264473684  0.4166666665909091  0.1896293  1.0000
  Se  Se4675    1.0  0.9210526314473683  0.4242424243181818  0.32365471999999995  1.0000
  Se  Se4676    1.0  0.9342105264473684  0.4166666665909091  0.6763452799999999  1.0000
  Se  Se4677    1.0  0.9210526315789472  0.4090909090909091  0.0  1.0000
  In  In3119    1.0  0.9210526317105262  0.4393939393181818  0.1896293  1.0000
  Se  Se4678    1.0  0.9210526317105262  0.4393939393181818  0.6763452799999999  1.0000
  In  In3120    1.0  0.9342105261842103  0.4469696970454546  0.8103706999999999  1.0000
  Se  Se4679    1.0  0.9342105261842103  0.4469696970454546  0.32365471999999995  1.0000
  Se  Se4680    1.0  0.9342105263157894  0.4318181818181819  0.0  1.0000
  In  In3121    1.0  0.9210526314473683  0.4696969697727273  0.8103706999999999  1.0000
  In  In3122    1.0  0.9342105264473684  0.46212121204545453  0.1896293  1.0000
  Se  Se4681    1.0  0.9210526314473683  0.4696969697727273  0.32365471999999995  1.0000
  Se  Se4682    1.0  0.9342105264473684  0.46212121204545453  0.6763452799999999  1.0000
  Se  Se4683    1.0  0.9210526315789472  0.4545454545454546  0.0  1.0000
  In  In3123    1.0  0.9210526317105262  0.4848484847727273  0.1896293  1.0000
  Se  Se4684    1.0  0.9210526317105262  0.4848484847727273  0.6763452799999999  1.0000
  In  In3124    1.0  0.9342105261842103  0.49242424250000005  0.8103706999999999  1.0000
  Se  Se4685    1.0  0.9342105261842103  0.49242424250000005  0.32365471999999995  1.0000
  Se  Se4686    1.0  0.9342105263157894  0.47727272727272735  0.0  1.0000
  In  In3125    1.0  0.9210526314473683  0.5151515152272728  0.8103706999999999  1.0000
  In  In3126    1.0  0.9342105264473684  0.5075757575  0.1896293  1.0000
  Se  Se4687    1.0  0.9210526314473683  0.5151515152272728  0.32365471999999995  1.0000
  Se  Se4688    1.0  0.9342105264473684  0.5075757575  0.6763452799999999  1.0000
  Se  Se4689    1.0  0.9210526315789472  0.5  0.0  1.0000
  In  In3127    1.0  0.9210526317105262  0.5303030302272728  0.1896293  1.0000
  Se  Se4690    1.0  0.9210526317105262  0.5303030302272728  0.6763452799999999  1.0000
  In  In3128    1.0  0.9342105261842103  0.5378787879545455  0.8103706999999999  1.0000
  Se  Se4691    1.0  0.9342105261842103  0.5378787879545455  0.32365471999999995  1.0000
  Se  Se4692    1.0  0.9342105263157894  0.5227272727272728  0.0  1.0000
  In  In3129    1.0  0.9210526314473683  0.5606060606818183  0.8103706999999999  1.0000
  In  In3130    1.0  0.9342105264473684  0.5530303029545455  0.1896293  1.0000
  Se  Se4693    1.0  0.9210526314473683  0.5606060606818183  0.32365471999999995  1.0000
  Se  Se4694    1.0  0.9342105264473684  0.5530303029545455  0.6763452799999999  1.0000
  Se  Se4695    1.0  0.9210526315789472  0.5454545454545455  0.0  1.0000
  In  In3131    1.0  0.9210526317105262  0.5757575756818183  0.1896293  1.0000
  Se  Se4696    1.0  0.9210526317105262  0.5757575756818183  0.6763452799999999  1.0000
  In  In3132    1.0  0.9342105261842103  0.583333333409091  0.8103706999999999  1.0000
  Se  Se4697    1.0  0.9342105261842103  0.583333333409091  0.32365471999999995  1.0000
  Se  Se4698    1.0  0.9342105263157894  0.5681818181818183  0.0  1.0000
  In  In3133    1.0  0.9210526314473683  0.6060606061363637  0.8103706999999999  1.0000
  In  In3134    1.0  0.9342105264473684  0.598484848409091  0.1896293  1.0000
  Se  Se4699    1.0  0.9210526314473683  0.6060606061363637  0.32365471999999995  1.0000
  Se  Se4700    1.0  0.9342105264473684  0.598484848409091  0.6763452799999999  1.0000
  Se  Se4701    1.0  0.9210526315789472  0.590909090909091  0.0  1.0000
  In  In3135    1.0  0.9210526317105262  0.6212121211363637  0.1896293  1.0000
  Se  Se4702    1.0  0.9210526317105262  0.6212121211363637  0.6763452799999999  1.0000
  In  In3136    1.0  0.9342105261842103  0.6287878788636365  0.8103706999999999  1.0000
  Se  Se4703    1.0  0.9342105261842103  0.6287878788636365  0.32365471999999995  1.0000
  Se  Se4704    1.0  0.9342105263157894  0.6136363636363638  0.0  1.0000
  In  In3137    1.0  0.9210526314473683  0.6515151515909091  0.8103706999999999  1.0000
  In  In3138    1.0  0.9342105264473684  0.6439393938636364  0.1896293  1.0000
  Se  Se4705    1.0  0.9210526314473683  0.6515151515909091  0.32365471999999995  1.0000
  Se  Se4706    1.0  0.9342105264473684  0.6439393938636364  0.6763452799999999  1.0000
  Se  Se4707    1.0  0.9210526315789472  0.6363636363636365  0.0  1.0000
  In  In3139    1.0  0.9210526317105262  0.6666666665909092  0.1896293  1.0000
  Se  Se4708    1.0  0.9210526317105262  0.6666666665909092  0.6763452799999999  1.0000
  In  In3140    1.0  0.9342105261842103  0.6742424243181819  0.8103706999999999  1.0000
  Se  Se4709    1.0  0.9342105261842103  0.6742424243181819  0.32365471999999995  1.0000
  Se  Se4710    1.0  0.9342105263157894  0.6590909090909092  0.0  1.0000
  In  In3141    1.0  0.9210526314473683  0.6969696970454546  0.8103706999999999  1.0000
  In  In3142    1.0  0.9342105264473684  0.6893939393181818  0.1896293  1.0000
  Se  Se4711    1.0  0.9210526314473683  0.6969696970454546  0.32365471999999995  1.0000
  Se  Se4712    1.0  0.9342105264473684  0.6893939393181818  0.6763452799999999  1.0000
  Se  Se4713    1.0  0.9210526315789472  0.6818181818181819  0.0  1.0000
  In  In3143    1.0  0.9210526317105262  0.7121212120454546  0.1896293  1.0000
  Se  Se4714    1.0  0.9210526317105262  0.7121212120454546  0.6763452799999999  1.0000
  In  In3144    1.0  0.9342105261842103  0.7196969697727273  0.8103706999999999  1.0000
  Se  Se4715    1.0  0.9342105261842103  0.7196969697727273  0.32365471999999995  1.0000
  Se  Se4716    1.0  0.9342105263157894  0.7045454545454547  0.0  1.0000
  In  In3145    1.0  0.9210526314473683  0.7424242425  0.8103706999999999  1.0000
  In  In3146    1.0  0.9342105264473684  0.7348484847727274  0.1896293  1.0000
  Se  Se4717    1.0  0.9210526314473683  0.7424242425  0.32365471999999995  1.0000
  Se  Se4718    1.0  0.9342105264473684  0.7348484847727274  0.6763452799999999  1.0000
  Se  Se4719    1.0  0.9210526315789472  0.7272727272727273  0.0  1.0000
  In  In3147    1.0  0.9210526317105262  0.7575757575000001  0.1896293  1.0000
  Se  Se4720    1.0  0.9210526317105262  0.7575757575000001  0.6763452799999999  1.0000
  In  In3148    1.0  0.9342105261842103  0.7651515152272729  0.8103706999999999  1.0000
  Se  Se4721    1.0  0.9342105261842103  0.7651515152272729  0.32365471999999995  1.0000
  Se  Se4722    1.0  0.9342105263157894  0.7500000000000001  0.0  1.0000
  In  In3149    1.0  0.9210526314473683  0.7878787879545455  0.8103706999999999  1.0000
  In  In3150    1.0  0.9342105264473684  0.7803030302272728  0.1896293  1.0000
  Se  Se4723    1.0  0.9210526314473683  0.7878787879545455  0.32365471999999995  1.0000
  Se  Se4724    1.0  0.9342105264473684  0.7803030302272728  0.6763452799999999  1.0000
  Se  Se4725    1.0  0.9210526315789472  0.7727272727272728  0.0  1.0000
  In  In3151    1.0  0.9210526317105262  0.8030303029545455  0.1896293  1.0000
  Se  Se4726    1.0  0.9210526317105262  0.8030303029545455  0.6763452799999999  1.0000
  In  In3152    1.0  0.9342105261842103  0.8106060606818183  0.8103706999999999  1.0000
  Se  Se4727    1.0  0.9342105261842103  0.8106060606818183  0.32365471999999995  1.0000
  Se  Se4728    1.0  0.9342105263157894  0.7954545454545455  0.0  1.0000
  In  In3153    1.0  0.9210526314473683  0.833333333409091  0.8103706999999999  1.0000
  In  In3154    1.0  0.9342105264473684  0.8257575756818182  0.1896293  1.0000
  Se  Se4729    1.0  0.9210526314473683  0.833333333409091  0.32365471999999995  1.0000
  Se  Se4730    1.0  0.9342105264473684  0.8257575756818182  0.6763452799999999  1.0000
  Se  Se4731    1.0  0.9210526315789472  0.8181818181818182  0.0  1.0000
  In  In3155    1.0  0.9210526317105262  0.848484848409091  0.1896293  1.0000
  Se  Se4732    1.0  0.9210526317105262  0.848484848409091  0.6763452799999999  1.0000
  In  In3156    1.0  0.9342105261842103  0.8560606061363636  0.8103706999999999  1.0000
  Se  Se4733    1.0  0.9342105261842103  0.8560606061363636  0.32365471999999995  1.0000
  Se  Se4734    1.0  0.9342105263157894  0.840909090909091  0.0  1.0000
  In  In3157    1.0  0.9210526314473683  0.8787878788636366  0.8103706999999999  1.0000
  In  In3158    1.0  0.9342105264473684  0.8712121211363637  0.1896293  1.0000
  Se  Se4735    1.0  0.9210526314473683  0.8787878788636366  0.32365471999999995  1.0000
  Se  Se4736    1.0  0.9342105264473684  0.8712121211363637  0.6763452799999999  1.0000
  Se  Se4737    1.0  0.9210526315789472  0.8636363636363638  0.0  1.0000
  In  In3159    1.0  0.9210526317105262  0.8939393938636365  0.1896293  1.0000
  Se  Se4738    1.0  0.9210526317105262  0.8939393938636365  0.6763452799999999  1.0000
  In  In3160    1.0  0.9342105261842103  0.9015151515909092  0.8103706999999999  1.0000
  Se  Se4739    1.0  0.9342105261842103  0.9015151515909092  0.32365471999999995  1.0000
  Se  Se4740    1.0  0.9342105263157894  0.8863636363636366  0.0  1.0000
  In  In3161    1.0  0.9210526314473683  0.9242424243181819  0.8103706999999999  1.0000
  In  In3162    1.0  0.9342105264473684  0.9166666665909091  0.1896293  1.0000
  Se  Se4741    1.0  0.9210526314473683  0.9242424243181819  0.32365471999999995  1.0000
  Se  Se4742    1.0  0.9342105264473684  0.9166666665909091  0.6763452799999999  1.0000
  Se  Se4743    1.0  0.9210526315789472  0.9090909090909092  0.0  1.0000
  In  In3163    1.0  0.9210526317105262  0.9393939393181818  0.1896293  1.0000
  Se  Se4744    1.0  0.9210526317105262  0.9393939393181818  0.6763452799999999  1.0000
  In  In3164    1.0  0.9342105261842103  0.9469696970454545  0.8103706999999999  1.0000
  Se  Se4745    1.0  0.9342105261842103  0.9469696970454545  0.32365471999999995  1.0000
  Se  Se4746    1.0  0.9342105263157894  0.9318181818181819  0.0  1.0000
  In  In3165    1.0  0.9210526314473683  0.9696969697727275  0.8103706999999999  1.0000
  In  In3166    1.0  0.9342105264473684  0.9621212120454546  0.1896293  1.0000
  Se  Se4747    1.0  0.9210526314473683  0.9696969697727275  0.32365471999999995  1.0000
  Se  Se4748    1.0  0.9342105264473684  0.9621212120454546  0.6763452799999999  1.0000
  Se  Se4749    1.0  0.9210526315789472  0.9545454545454547  0.0  1.0000
  In  In3167    1.0  0.9210526317105262  0.9848484847727275  0.1896293  1.0000
  Se  Se4750    1.0  0.9210526317105262  0.9848484847727275  0.6763452799999999  1.0000
  In  In3168    1.0  0.9342105261842103  0.9924242425  0.8103706999999999  1.0000
  Se  Se4751    1.0  0.9342105261842103  0.9924242425  0.32365471999999995  1.0000
  Se  Se4752    1.0  0.9342105263157894  0.9772727272727274  0.0  1.0000
  In  In3169    1.0  0.9473684209210524  0.01515151522727273  0.8103706999999999  1.0000
  In  In3170    1.0  0.9605263159210525  0.0075757575  0.1896293  1.0000
  Se  Se4753    1.0  0.9473684209210524  0.01515151522727273  0.32365471999999995  1.0000
  Se  Se4754    1.0  0.9605263159210525  0.0075757575  0.6763452799999999  1.0000
  Se  Se4755    1.0  0.9473684210526314  0.0  0.0  1.0000
  In  In3171    1.0  0.9473684211842104  0.030303030227272734  0.1896293  1.0000
  Se  Se4756    1.0  0.9473684211842104  0.030303030227272734  0.6763452799999999  1.0000
  In  In3172    1.0  0.9605263156578945  0.03787878795454546  0.8103706999999999  1.0000
  Se  Se4757    1.0  0.9605263156578945  0.03787878795454546  0.32365471999999995  1.0000
  Se  Se4758    1.0  0.9605263157894736  0.022727272727272728  0.0  1.0000
  In  In3173    1.0  0.9473684209210524  0.06060606068181818  0.8103706999999999  1.0000
  In  In3174    1.0  0.9605263159210525  0.05303030295454546  0.1896293  1.0000
  Se  Se4759    1.0  0.9473684209210524  0.06060606068181818  0.32365471999999995  1.0000
  Se  Se4760    1.0  0.9605263159210525  0.05303030295454546  0.6763452799999999  1.0000
  Se  Se4761    1.0  0.9473684210526314  0.045454545454545456  0.0  1.0000
  In  In3175    1.0  0.9473684211842104  0.07575757568181819  0.1896293  1.0000
  Se  Se4762    1.0  0.9473684211842104  0.07575757568181819  0.6763452799999999  1.0000
  In  In3176    1.0  0.9605263156578945  0.08333333340909092  0.8103706999999999  1.0000
  Se  Se4763    1.0  0.9605263156578945  0.08333333340909092  0.32365471999999995  1.0000
  Se  Se4764    1.0  0.9605263157894736  0.06818181818181819  0.0  1.0000
  In  In3177    1.0  0.9473684209210524  0.10606060613636366  0.8103706999999999  1.0000
  In  In3178    1.0  0.9605263159210525  0.09848484840909091  0.1896293  1.0000
  Se  Se4765    1.0  0.9473684209210524  0.10606060613636366  0.32365471999999995  1.0000
  Se  Se4766    1.0  0.9605263159210525  0.09848484840909091  0.6763452799999999  1.0000
  Se  Se4767    1.0  0.9473684210526314  0.09090909090909091  0.0  1.0000
  In  In3179    1.0  0.9473684211842104  0.12121212113636365  0.1896293  1.0000
  Se  Se4768    1.0  0.9473684211842104  0.12121212113636365  0.6763452799999999  1.0000
  In  In3180    1.0  0.9605263156578945  0.12878787886363638  0.8103706999999999  1.0000
  Se  Se4769    1.0  0.9605263156578945  0.12878787886363638  0.32365471999999995  1.0000
  Se  Se4770    1.0  0.9605263157894736  0.11363636363636365  0.0  1.0000
  In  In3181    1.0  0.9473684209210524  0.15151515159090911  0.8103706999999999  1.0000
  In  In3182    1.0  0.9605263159210525  0.1439393938636364  0.1896293  1.0000
  Se  Se4771    1.0  0.9473684209210524  0.15151515159090911  0.32365471999999995  1.0000
  Se  Se4772    1.0  0.9605263159210525  0.1439393938636364  0.6763452799999999  1.0000
  Se  Se4773    1.0  0.9473684210526314  0.13636363636363638  0.0  1.0000
  In  In3183    1.0  0.9473684211842104  0.16666666659090912  0.1896293  1.0000
  Se  Se4774    1.0  0.9473684211842104  0.16666666659090912  0.6763452799999999  1.0000
  In  In3184    1.0  0.9605263156578945  0.17424242431818185  0.8103706999999999  1.0000
  Se  Se4775    1.0  0.9605263156578945  0.17424242431818185  0.32365471999999995  1.0000
  Se  Se4776    1.0  0.9605263157894736  0.15909090909090912  0.0  1.0000
  In  In3185    1.0  0.9473684209210524  0.19696969704545458  0.8103706999999999  1.0000
  In  In3186    1.0  0.9605263159210525  0.18939393931818185  0.1896293  1.0000
  Se  Se4777    1.0  0.9473684209210524  0.19696969704545458  0.32365471999999995  1.0000
  Se  Se4778    1.0  0.9605263159210525  0.18939393931818185  0.6763452799999999  1.0000
  Se  Se4779    1.0  0.9473684210526314  0.18181818181818182  0.0  1.0000
  In  In3187    1.0  0.9473684211842104  0.21212121204545456  0.1896293  1.0000
  Se  Se4780    1.0  0.9473684211842104  0.21212121204545456  0.6763452799999999  1.0000
  In  In3188    1.0  0.9605263156578945  0.21969696977272726  0.8103706999999999  1.0000
  Se  Se4781    1.0  0.9605263156578945  0.21969696977272726  0.32365471999999995  1.0000
  Se  Se4782    1.0  0.9605263157894736  0.20454545454545456  0.0  1.0000
  In  In3189    1.0  0.9473684209210524  0.2424242425  0.8103706999999999  1.0000
  In  In3190    1.0  0.9605263159210525  0.2348484847727273  0.1896293  1.0000
  Se  Se4783    1.0  0.9473684209210524  0.2424242425  0.32365471999999995  1.0000
  Se  Se4784    1.0  0.9605263159210525  0.2348484847727273  0.6763452799999999  1.0000
  Se  Se4785    1.0  0.9473684210526314  0.2272727272727273  0.0  1.0000
  In  In3191    1.0  0.9473684211842104  0.2575757575  0.1896293  1.0000
  Se  Se4786    1.0  0.9473684211842104  0.2575757575  0.6763452799999999  1.0000
  In  In3192    1.0  0.9605263156578945  0.2651515152272727  0.8103706999999999  1.0000
  Se  Se4787    1.0  0.9605263156578945  0.2651515152272727  0.32365471999999995  1.0000
  Se  Se4788    1.0  0.9605263157894736  0.25  0.0  1.0000
  In  In3193    1.0  0.9473684209210524  0.28787878795454547  0.8103706999999999  1.0000
  In  In3194    1.0  0.9605263159210525  0.28030303022727276  0.1896293  1.0000
  Se  Se4789    1.0  0.9473684209210524  0.28787878795454547  0.32365471999999995  1.0000
  Se  Se4790    1.0  0.9605263159210525  0.28030303022727276  0.6763452799999999  1.0000
  Se  Se4791    1.0  0.9473684210526314  0.27272727272727276  0.0  1.0000
  In  In3195    1.0  0.9473684211842104  0.3030303029545455  0.1896293  1.0000
  Se  Se4792    1.0  0.9473684211842104  0.3030303029545455  0.6763452799999999  1.0000
  In  In3196    1.0  0.9605263156578945  0.3106060606818183  0.8103706999999999  1.0000
  Se  Se4793    1.0  0.9605263156578945  0.3106060606818183  0.32365471999999995  1.0000
  Se  Se4794    1.0  0.9605263157894736  0.2954545454545455  0.0  1.0000
  In  In3197    1.0  0.9473684209210524  0.33333333340909094  0.8103706999999999  1.0000
  In  In3198    1.0  0.9605263159210525  0.32575757568181823  0.1896293  1.0000
  Se  Se4795    1.0  0.9473684209210524  0.33333333340909094  0.32365471999999995  1.0000
  Se  Se4796    1.0  0.9605263159210525  0.32575757568181823  0.6763452799999999  1.0000
  Se  Se4797    1.0  0.9473684210526314  0.31818181818181823  0.0  1.0000
  In  In3199    1.0  0.9473684211842104  0.34848484840909094  0.1896293  1.0000
  Se  Se4798    1.0  0.9473684211842104  0.34848484840909094  0.6763452799999999  1.0000
  In  In3200    1.0  0.9605263156578945  0.3560606061363637  0.8103706999999999  1.0000
  Se  Se4799    1.0  0.9605263156578945  0.3560606061363637  0.32365471999999995  1.0000
  Se  Se4800    1.0  0.9605263157894736  0.34090909090909094  0.0  1.0000
  In  In3201    1.0  0.9473684209210524  0.3787878788636364  0.8103706999999999  1.0000
  In  In3202    1.0  0.9605263159210525  0.3712121211363637  0.1896293  1.0000
  Se  Se4801    1.0  0.9473684209210524  0.3787878788636364  0.32365471999999995  1.0000
  Se  Se4802    1.0  0.9605263159210525  0.3712121211363637  0.6763452799999999  1.0000
  Se  Se4803    1.0  0.9473684210526314  0.36363636363636365  0.0  1.0000
  In  In3203    1.0  0.9473684211842104  0.3939393938636364  0.1896293  1.0000
  Se  Se4804    1.0  0.9473684211842104  0.3939393938636364  0.6763452799999999  1.0000
  In  In3204    1.0  0.9605263156578945  0.40151515159090917  0.8103706999999999  1.0000
  Se  Se4805    1.0  0.9605263156578945  0.40151515159090917  0.32365471999999995  1.0000
  Se  Se4806    1.0  0.9605263157894736  0.3863636363636364  0.0  1.0000
  In  In3205    1.0  0.9473684209210524  0.4242424243181818  0.8103706999999999  1.0000
  In  In3206    1.0  0.9605263159210525  0.4166666665909091  0.1896293  1.0000
  Se  Se4807    1.0  0.9473684209210524  0.4242424243181818  0.32365471999999995  1.0000
  Se  Se4808    1.0  0.9605263159210525  0.4166666665909091  0.6763452799999999  1.0000
  Se  Se4809    1.0  0.9473684210526314  0.4090909090909091  0.0  1.0000
  In  In3207    1.0  0.9473684211842104  0.4393939393181818  0.1896293  1.0000
  Se  Se4810    1.0  0.9473684211842104  0.4393939393181818  0.6763452799999999  1.0000
  In  In3208    1.0  0.9605263156578945  0.4469696970454546  0.8103706999999999  1.0000
  Se  Se4811    1.0  0.9605263156578945  0.4469696970454546  0.32365471999999995  1.0000
  Se  Se4812    1.0  0.9605263157894736  0.4318181818181819  0.0  1.0000
  In  In3209    1.0  0.9473684209210524  0.4696969697727273  0.8103706999999999  1.0000
  In  In3210    1.0  0.9605263159210525  0.46212121204545453  0.1896293  1.0000
  Se  Se4813    1.0  0.9473684209210524  0.4696969697727273  0.32365471999999995  1.0000
  Se  Se4814    1.0  0.9605263159210525  0.46212121204545453  0.6763452799999999  1.0000
  Se  Se4815    1.0  0.9473684210526314  0.4545454545454546  0.0  1.0000
  In  In3211    1.0  0.9473684211842104  0.4848484847727273  0.1896293  1.0000
  Se  Se4816    1.0  0.9473684211842104  0.4848484847727273  0.6763452799999999  1.0000
  In  In3212    1.0  0.9605263156578945  0.49242424250000005  0.8103706999999999  1.0000
  Se  Se4817    1.0  0.9605263156578945  0.49242424250000005  0.32365471999999995  1.0000
  Se  Se4818    1.0  0.9605263157894736  0.47727272727272735  0.0  1.0000
  In  In3213    1.0  0.9473684209210524  0.5151515152272728  0.8103706999999999  1.0000
  In  In3214    1.0  0.9605263159210525  0.5075757575  0.1896293  1.0000
  Se  Se4819    1.0  0.9473684209210524  0.5151515152272728  0.32365471999999995  1.0000
  Se  Se4820    1.0  0.9605263159210525  0.5075757575  0.6763452799999999  1.0000
  Se  Se4821    1.0  0.9473684210526314  0.5  0.0  1.0000
  In  In3215    1.0  0.9473684211842104  0.5303030302272728  0.1896293  1.0000
  Se  Se4822    1.0  0.9473684211842104  0.5303030302272728  0.6763452799999999  1.0000
  In  In3216    1.0  0.9605263156578945  0.5378787879545455  0.8103706999999999  1.0000
  Se  Se4823    1.0  0.9605263156578945  0.5378787879545455  0.32365471999999995  1.0000
  Se  Se4824    1.0  0.9605263157894736  0.5227272727272728  0.0  1.0000
  In  In3217    1.0  0.9473684209210524  0.5606060606818183  0.8103706999999999  1.0000
  In  In3218    1.0  0.9605263159210525  0.5530303029545455  0.1896293  1.0000
  Se  Se4825    1.0  0.9473684209210524  0.5606060606818183  0.32365471999999995  1.0000
  Se  Se4826    1.0  0.9605263159210525  0.5530303029545455  0.6763452799999999  1.0000
  Se  Se4827    1.0  0.9473684210526314  0.5454545454545455  0.0  1.0000
  In  In3219    1.0  0.9473684211842104  0.5757575756818183  0.1896293  1.0000
  Se  Se4828    1.0  0.9473684211842104  0.5757575756818183  0.6763452799999999  1.0000
  In  In3220    1.0  0.9605263156578945  0.583333333409091  0.8103706999999999  1.0000
  Se  Se4829    1.0  0.9605263156578945  0.583333333409091  0.32365471999999995  1.0000
  Se  Se4830    1.0  0.9605263157894736  0.5681818181818183  0.0  1.0000
  In  In3221    1.0  0.9473684209210524  0.6060606061363637  0.8103706999999999  1.0000
  In  In3222    1.0  0.9605263159210525  0.598484848409091  0.1896293  1.0000
  Se  Se4831    1.0  0.9473684209210524  0.6060606061363637  0.32365471999999995  1.0000
  Se  Se4832    1.0  0.9605263159210525  0.598484848409091  0.6763452799999999  1.0000
  Se  Se4833    1.0  0.9473684210526314  0.590909090909091  0.0  1.0000
  In  In3223    1.0  0.9473684211842104  0.6212121211363637  0.1896293  1.0000
  Se  Se4834    1.0  0.9473684211842104  0.6212121211363637  0.6763452799999999  1.0000
  In  In3224    1.0  0.9605263156578945  0.6287878788636365  0.8103706999999999  1.0000
  Se  Se4835    1.0  0.9605263156578945  0.6287878788636365  0.32365471999999995  1.0000
  Se  Se4836    1.0  0.9605263157894736  0.6136363636363638  0.0  1.0000
  In  In3225    1.0  0.9473684209210524  0.6515151515909091  0.8103706999999999  1.0000
  In  In3226    1.0  0.9605263159210525  0.6439393938636364  0.1896293  1.0000
  Se  Se4837    1.0  0.9473684209210524  0.6515151515909091  0.32365471999999995  1.0000
  Se  Se4838    1.0  0.9605263159210525  0.6439393938636364  0.6763452799999999  1.0000
  Se  Se4839    1.0  0.9473684210526314  0.6363636363636365  0.0  1.0000
  In  In3227    1.0  0.9473684211842104  0.6666666665909092  0.1896293  1.0000
  Se  Se4840    1.0  0.9473684211842104  0.6666666665909092  0.6763452799999999  1.0000
  In  In3228    1.0  0.9605263156578945  0.6742424243181819  0.8103706999999999  1.0000
  Se  Se4841    1.0  0.9605263156578945  0.6742424243181819  0.32365471999999995  1.0000
  Se  Se4842    1.0  0.9605263157894736  0.6590909090909092  0.0  1.0000
  In  In3229    1.0  0.9473684209210524  0.6969696970454546  0.8103706999999999  1.0000
  In  In3230    1.0  0.9605263159210525  0.6893939393181818  0.1896293  1.0000
  Se  Se4843    1.0  0.9473684209210524  0.6969696970454546  0.32365471999999995  1.0000
  Se  Se4844    1.0  0.9605263159210525  0.6893939393181818  0.6763452799999999  1.0000
  Se  Se4845    1.0  0.9473684210526314  0.6818181818181819  0.0  1.0000
  In  In3231    1.0  0.9473684211842104  0.7121212120454546  0.1896293  1.0000
  Se  Se4846    1.0  0.9473684211842104  0.7121212120454546  0.6763452799999999  1.0000
  In  In3232    1.0  0.9605263156578945  0.7196969697727273  0.8103706999999999  1.0000
  Se  Se4847    1.0  0.9605263156578945  0.7196969697727273  0.32365471999999995  1.0000
  Se  Se4848    1.0  0.9605263157894736  0.7045454545454547  0.0  1.0000
  In  In3233    1.0  0.9473684209210524  0.7424242425  0.8103706999999999  1.0000
  In  In3234    1.0  0.9605263159210525  0.7348484847727274  0.1896293  1.0000
  Se  Se4849    1.0  0.9473684209210524  0.7424242425  0.32365471999999995  1.0000
  Se  Se4850    1.0  0.9605263159210525  0.7348484847727274  0.6763452799999999  1.0000
  Se  Se4851    1.0  0.9473684210526314  0.7272727272727273  0.0  1.0000
  In  In3235    1.0  0.9473684211842104  0.7575757575000001  0.1896293  1.0000
  Se  Se4852    1.0  0.9473684211842104  0.7575757575000001  0.6763452799999999  1.0000
  In  In3236    1.0  0.9605263156578945  0.7651515152272729  0.8103706999999999  1.0000
  Se  Se4853    1.0  0.9605263156578945  0.7651515152272729  0.32365471999999995  1.0000
  Se  Se4854    1.0  0.9605263157894736  0.7500000000000001  0.0  1.0000
  In  In3237    1.0  0.9473684209210524  0.7878787879545455  0.8103706999999999  1.0000
  In  In3238    1.0  0.9605263159210525  0.7803030302272728  0.1896293  1.0000
  Se  Se4855    1.0  0.9473684209210524  0.7878787879545455  0.32365471999999995  1.0000
  Se  Se4856    1.0  0.9605263159210525  0.7803030302272728  0.6763452799999999  1.0000
  Se  Se4857    1.0  0.9473684210526314  0.7727272727272728  0.0  1.0000
  In  In3239    1.0  0.9473684211842104  0.8030303029545455  0.1896293  1.0000
  Se  Se4858    1.0  0.9473684211842104  0.8030303029545455  0.6763452799999999  1.0000
  In  In3240    1.0  0.9605263156578945  0.8106060606818183  0.8103706999999999  1.0000
  Se  Se4859    1.0  0.9605263156578945  0.8106060606818183  0.32365471999999995  1.0000
  Se  Se4860    1.0  0.9605263157894736  0.7954545454545455  0.0  1.0000
  In  In3241    1.0  0.9473684209210524  0.833333333409091  0.8103706999999999  1.0000
  In  In3242    1.0  0.9605263159210525  0.8257575756818182  0.1896293  1.0000
  Se  Se4861    1.0  0.9473684209210524  0.833333333409091  0.32365471999999995  1.0000
  Se  Se4862    1.0  0.9605263159210525  0.8257575756818182  0.6763452799999999  1.0000
  Se  Se4863    1.0  0.9473684210526314  0.8181818181818182  0.0  1.0000
  In  In3243    1.0  0.9473684211842104  0.848484848409091  0.1896293  1.0000
  Se  Se4864    1.0  0.9473684211842104  0.848484848409091  0.6763452799999999  1.0000
  In  In3244    1.0  0.9605263156578945  0.8560606061363636  0.8103706999999999  1.0000
  Se  Se4865    1.0  0.9605263156578945  0.8560606061363636  0.32365471999999995  1.0000
  Se  Se4866    1.0  0.9605263157894736  0.840909090909091  0.0  1.0000
  In  In3245    1.0  0.9473684209210524  0.8787878788636366  0.8103706999999999  1.0000
  In  In3246    1.0  0.9605263159210525  0.8712121211363637  0.1896293  1.0000
  Se  Se4867    1.0  0.9473684209210524  0.8787878788636366  0.32365471999999995  1.0000
  Se  Se4868    1.0  0.9605263159210525  0.8712121211363637  0.6763452799999999  1.0000
  Se  Se4869    1.0  0.9473684210526314  0.8636363636363638  0.0  1.0000
  In  In3247    1.0  0.9473684211842104  0.8939393938636365  0.1896293  1.0000
  Se  Se4870    1.0  0.9473684211842104  0.8939393938636365  0.6763452799999999  1.0000
  In  In3248    1.0  0.9605263156578945  0.9015151515909092  0.8103706999999999  1.0000
  Se  Se4871    1.0  0.9605263156578945  0.9015151515909092  0.32365471999999995  1.0000
  Se  Se4872    1.0  0.9605263157894736  0.8863636363636366  0.0  1.0000
  In  In3249    1.0  0.9473684209210524  0.9242424243181819  0.8103706999999999  1.0000
  In  In3250    1.0  0.9605263159210525  0.9166666665909091  0.1896293  1.0000
  Se  Se4873    1.0  0.9473684209210524  0.9242424243181819  0.32365471999999995  1.0000
  Se  Se4874    1.0  0.9605263159210525  0.9166666665909091  0.6763452799999999  1.0000
  Se  Se4875    1.0  0.9473684210526314  0.9090909090909092  0.0  1.0000
  In  In3251    1.0  0.9473684211842104  0.9393939393181818  0.1896293  1.0000
  Se  Se4876    1.0  0.9473684211842104  0.9393939393181818  0.6763452799999999  1.0000
  In  In3252    1.0  0.9605263156578945  0.9469696970454545  0.8103706999999999  1.0000
  Se  Se4877    1.0  0.9605263156578945  0.9469696970454545  0.32365471999999995  1.0000
  Se  Se4878    1.0  0.9605263157894736  0.9318181818181819  0.0  1.0000
  In  In3253    1.0  0.9473684209210524  0.9696969697727275  0.8103706999999999  1.0000
  In  In3254    1.0  0.9605263159210525  0.9621212120454546  0.1896293  1.0000
  Se  Se4879    1.0  0.9473684209210524  0.9696969697727275  0.32365471999999995  1.0000
  Se  Se4880    1.0  0.9605263159210525  0.9621212120454546  0.6763452799999999  1.0000
  Se  Se4881    1.0  0.9473684210526314  0.9545454545454547  0.0  1.0000
  In  In3255    1.0  0.9473684211842104  0.9848484847727275  0.1896293  1.0000
  Se  Se4882    1.0  0.9473684211842104  0.9848484847727275  0.6763452799999999  1.0000
  In  In3256    1.0  0.9605263156578945  0.9924242425  0.8103706999999999  1.0000
  Se  Se4883    1.0  0.9605263156578945  0.9924242425  0.32365471999999995  1.0000
  Se  Se4884    1.0  0.9605263157894736  0.9772727272727274  0.0  1.0000
  In  In3257    1.0  0.9736842103947366  0.01515151522727273  0.8103706999999999  1.0000
  In  In3258    1.0  0.9868421053947367  0.0075757575  0.1896293  1.0000
  Se  Se4885    1.0  0.9736842103947366  0.01515151522727273  0.32365471999999995  1.0000
  Se  Se4886    1.0  0.9868421053947367  0.0075757575  0.6763452799999999  1.0000
  Se  Se4887    1.0  0.9736842105263156  0.0  0.0  1.0000
  In  In3259    1.0  0.9736842106578946  0.030303030227272734  0.1896293  1.0000
  Se  Se4888    1.0  0.9736842106578946  0.030303030227272734  0.6763452799999999  1.0000
  In  In3260    1.0  0.9868421051315788  0.03787878795454546  0.8103706999999999  1.0000
  Se  Se4889    1.0  0.9868421051315788  0.03787878795454546  0.32365471999999995  1.0000
  Se  Se4890    1.0  0.9868421052631577  0.022727272727272728  0.0  1.0000
  In  In3261    1.0  0.9736842103947366  0.06060606068181818  0.8103706999999999  1.0000
  In  In3262    1.0  0.9868421053947367  0.05303030295454546  0.1896293  1.0000
  Se  Se4891    1.0  0.9736842103947366  0.06060606068181818  0.32365471999999995  1.0000
  Se  Se4892    1.0  0.9868421053947367  0.05303030295454546  0.6763452799999999  1.0000
  Se  Se4893    1.0  0.9736842105263156  0.045454545454545456  0.0  1.0000
  In  In3263    1.0  0.9736842106578946  0.07575757568181819  0.1896293  1.0000
  Se  Se4894    1.0  0.9736842106578946  0.07575757568181819  0.6763452799999999  1.0000
  In  In3264    1.0  0.9868421051315788  0.08333333340909092  0.8103706999999999  1.0000
  Se  Se4895    1.0  0.9868421051315788  0.08333333340909092  0.32365471999999995  1.0000
  Se  Se4896    1.0  0.9868421052631577  0.06818181818181819  0.0  1.0000
  In  In3265    1.0  0.9736842103947366  0.10606060613636366  0.8103706999999999  1.0000
  In  In3266    1.0  0.9868421053947367  0.09848484840909091  0.1896293  1.0000
  Se  Se4897    1.0  0.9736842103947366  0.10606060613636366  0.32365471999999995  1.0000
  Se  Se4898    1.0  0.9868421053947367  0.09848484840909091  0.6763452799999999  1.0000
  Se  Se4899    1.0  0.9736842105263156  0.09090909090909091  0.0  1.0000
  In  In3267    1.0  0.9736842106578946  0.12121212113636365  0.1896293  1.0000
  Se  Se4900    1.0  0.9736842106578946  0.12121212113636365  0.6763452799999999  1.0000
  In  In3268    1.0  0.9868421051315788  0.12878787886363638  0.8103706999999999  1.0000
  Se  Se4901    1.0  0.9868421051315788  0.12878787886363638  0.32365471999999995  1.0000
  Se  Se4902    1.0  0.9868421052631577  0.11363636363636365  0.0  1.0000
  In  In3269    1.0  0.9736842103947366  0.15151515159090911  0.8103706999999999  1.0000
  In  In3270    1.0  0.9868421053947367  0.1439393938636364  0.1896293  1.0000
  Se  Se4903    1.0  0.9736842103947366  0.15151515159090911  0.32365471999999995  1.0000
  Se  Se4904    1.0  0.9868421053947367  0.1439393938636364  0.6763452799999999  1.0000
  Se  Se4905    1.0  0.9736842105263156  0.13636363636363638  0.0  1.0000
  In  In3271    1.0  0.9736842106578946  0.16666666659090912  0.1896293  1.0000
  Se  Se4906    1.0  0.9736842106578946  0.16666666659090912  0.6763452799999999  1.0000
  In  In3272    1.0  0.9868421051315788  0.17424242431818185  0.8103706999999999  1.0000
  Se  Se4907    1.0  0.9868421051315788  0.17424242431818185  0.32365471999999995  1.0000
  Se  Se4908    1.0  0.9868421052631577  0.15909090909090912  0.0  1.0000
  In  In3273    1.0  0.9736842103947366  0.19696969704545458  0.8103706999999999  1.0000
  In  In3274    1.0  0.9868421053947367  0.18939393931818185  0.1896293  1.0000
  Se  Se4909    1.0  0.9736842103947366  0.19696969704545458  0.32365471999999995  1.0000
  Se  Se4910    1.0  0.9868421053947367  0.18939393931818185  0.6763452799999999  1.0000
  Se  Se4911    1.0  0.9736842105263156  0.18181818181818182  0.0  1.0000
  In  In3275    1.0  0.9736842106578946  0.21212121204545456  0.1896293  1.0000
  Se  Se4912    1.0  0.9736842106578946  0.21212121204545456  0.6763452799999999  1.0000
  In  In3276    1.0  0.9868421051315788  0.21969696977272726  0.8103706999999999  1.0000
  Se  Se4913    1.0  0.9868421051315788  0.21969696977272726  0.32365471999999995  1.0000
  Se  Se4914    1.0  0.9868421052631577  0.20454545454545456  0.0  1.0000
  In  In3277    1.0  0.9736842103947366  0.2424242425  0.8103706999999999  1.0000
  In  In3278    1.0  0.9868421053947367  0.2348484847727273  0.1896293  1.0000
  Se  Se4915    1.0  0.9736842103947366  0.2424242425  0.32365471999999995  1.0000
  Se  Se4916    1.0  0.9868421053947367  0.2348484847727273  0.6763452799999999  1.0000
  Se  Se4917    1.0  0.9736842105263156  0.2272727272727273  0.0  1.0000
  In  In3279    1.0  0.9736842106578946  0.2575757575  0.1896293  1.0000
  Se  Se4918    1.0  0.9736842106578946  0.2575757575  0.6763452799999999  1.0000
  In  In3280    1.0  0.9868421051315788  0.2651515152272727  0.8103706999999999  1.0000
  Se  Se4919    1.0  0.9868421051315788  0.2651515152272727  0.32365471999999995  1.0000
  Se  Se4920    1.0  0.9868421052631577  0.25  0.0  1.0000
  In  In3281    1.0  0.9736842103947366  0.28787878795454547  0.8103706999999999  1.0000
  In  In3282    1.0  0.9868421053947367  0.28030303022727276  0.1896293  1.0000
  Se  Se4921    1.0  0.9736842103947366  0.28787878795454547  0.32365471999999995  1.0000
  Se  Se4922    1.0  0.9868421053947367  0.28030303022727276  0.6763452799999999  1.0000
  Se  Se4923    1.0  0.9736842105263156  0.27272727272727276  0.0  1.0000
  In  In3283    1.0  0.9736842106578946  0.3030303029545455  0.1896293  1.0000
  Se  Se4924    1.0  0.9736842106578946  0.3030303029545455  0.6763452799999999  1.0000
  In  In3284    1.0  0.9868421051315788  0.3106060606818183  0.8103706999999999  1.0000
  Se  Se4925    1.0  0.9868421051315788  0.3106060606818183  0.32365471999999995  1.0000
  Se  Se4926    1.0  0.9868421052631577  0.2954545454545455  0.0  1.0000
  In  In3285    1.0  0.9736842103947366  0.33333333340909094  0.8103706999999999  1.0000
  In  In3286    1.0  0.9868421053947367  0.32575757568181823  0.1896293  1.0000
  Se  Se4927    1.0  0.9736842103947366  0.33333333340909094  0.32365471999999995  1.0000
  Se  Se4928    1.0  0.9868421053947367  0.32575757568181823  0.6763452799999999  1.0000
  Se  Se4929    1.0  0.9736842105263156  0.31818181818181823  0.0  1.0000
  In  In3287    1.0  0.9736842106578946  0.34848484840909094  0.1896293  1.0000
  Se  Se4930    1.0  0.9736842106578946  0.34848484840909094  0.6763452799999999  1.0000
  In  In3288    1.0  0.9868421051315788  0.3560606061363637  0.8103706999999999  1.0000
  Se  Se4931    1.0  0.9868421051315788  0.3560606061363637  0.32365471999999995  1.0000
  Se  Se4932    1.0  0.9868421052631577  0.34090909090909094  0.0  1.0000
  In  In3289    1.0  0.9736842103947366  0.3787878788636364  0.8103706999999999  1.0000
  In  In3290    1.0  0.9868421053947367  0.3712121211363637  0.1896293  1.0000
  Se  Se4933    1.0  0.9736842103947366  0.3787878788636364  0.32365471999999995  1.0000
  Se  Se4934    1.0  0.9868421053947367  0.3712121211363637  0.6763452799999999  1.0000
  Se  Se4935    1.0  0.9736842105263156  0.36363636363636365  0.0  1.0000
  In  In3291    1.0  0.9736842106578946  0.3939393938636364  0.1896293  1.0000
  Se  Se4936    1.0  0.9736842106578946  0.3939393938636364  0.6763452799999999  1.0000
  In  In3292    1.0  0.9868421051315788  0.40151515159090917  0.8103706999999999  1.0000
  Se  Se4937    1.0  0.9868421051315788  0.40151515159090917  0.32365471999999995  1.0000
  Se  Se4938    1.0  0.9868421052631577  0.3863636363636364  0.0  1.0000
  In  In3293    1.0  0.9736842103947366  0.4242424243181818  0.8103706999999999  1.0000
  In  In3294    1.0  0.9868421053947367  0.4166666665909091  0.1896293  1.0000
  Se  Se4939    1.0  0.9736842103947366  0.4242424243181818  0.32365471999999995  1.0000
  Se  Se4940    1.0  0.9868421053947367  0.4166666665909091  0.6763452799999999  1.0000
  Se  Se4941    1.0  0.9736842105263156  0.4090909090909091  0.0  1.0000
  In  In3295    1.0  0.9736842106578946  0.4393939393181818  0.1896293  1.0000
  Se  Se4942    1.0  0.9736842106578946  0.4393939393181818  0.6763452799999999  1.0000
  In  In3296    1.0  0.9868421051315788  0.4469696970454546  0.8103706999999999  1.0000
  Se  Se4943    1.0  0.9868421051315788  0.4469696970454546  0.32365471999999995  1.0000
  Se  Se4944    1.0  0.9868421052631577  0.4318181818181819  0.0  1.0000
  In  In3297    1.0  0.9736842103947366  0.4696969697727273  0.8103706999999999  1.0000
  In  In3298    1.0  0.9868421053947367  0.46212121204545453  0.1896293  1.0000
  Se  Se4945    1.0  0.9736842103947366  0.4696969697727273  0.32365471999999995  1.0000
  Se  Se4946    1.0  0.9868421053947367  0.46212121204545453  0.6763452799999999  1.0000
  Se  Se4947    1.0  0.9736842105263156  0.4545454545454546  0.0  1.0000
  In  In3299    1.0  0.9736842106578946  0.4848484847727273  0.1896293  1.0000
  Se  Se4948    1.0  0.9736842106578946  0.4848484847727273  0.6763452799999999  1.0000
  In  In3300    1.0  0.9868421051315788  0.49242424250000005  0.8103706999999999  1.0000
  Se  Se4949    1.0  0.9868421051315788  0.49242424250000005  0.32365471999999995  1.0000
  Se  Se4950    1.0  0.9868421052631577  0.47727272727272735  0.0  1.0000
  In  In3301    1.0  0.9736842103947366  0.5151515152272728  0.8103706999999999  1.0000
  In  In3302    1.0  0.9868421053947367  0.5075757575  0.1896293  1.0000
  Se  Se4951    1.0  0.9736842103947366  0.5151515152272728  0.32365471999999995  1.0000
  Se  Se4952    1.0  0.9868421053947367  0.5075757575  0.6763452799999999  1.0000
  Se  Se4953    1.0  0.9736842105263156  0.5  0.0  1.0000
  In  In3303    1.0  0.9736842106578946  0.5303030302272728  0.1896293  1.0000
  Se  Se4954    1.0  0.9736842106578946  0.5303030302272728  0.6763452799999999  1.0000
  In  In3304    1.0  0.9868421051315788  0.5378787879545455  0.8103706999999999  1.0000
  Se  Se4955    1.0  0.9868421051315788  0.5378787879545455  0.32365471999999995  1.0000
  Se  Se4956    1.0  0.9868421052631577  0.5227272727272728  0.0  1.0000
  In  In3305    1.0  0.9736842103947366  0.5606060606818183  0.8103706999999999  1.0000
  In  In3306    1.0  0.9868421053947367  0.5530303029545455  0.1896293  1.0000
  Se  Se4957    1.0  0.9736842103947366  0.5606060606818183  0.32365471999999995  1.0000
  Se  Se4958    1.0  0.9868421053947367  0.5530303029545455  0.6763452799999999  1.0000
  Se  Se4959    1.0  0.9736842105263156  0.5454545454545455  0.0  1.0000
  In  In3307    1.0  0.9736842106578946  0.5757575756818183  0.1896293  1.0000
  Se  Se4960    1.0  0.9736842106578946  0.5757575756818183  0.6763452799999999  1.0000
  In  In3308    1.0  0.9868421051315788  0.583333333409091  0.8103706999999999  1.0000
  Se  Se4961    1.0  0.9868421051315788  0.583333333409091  0.32365471999999995  1.0000
  Se  Se4962    1.0  0.9868421052631577  0.5681818181818183  0.0  1.0000
  In  In3309    1.0  0.9736842103947366  0.6060606061363637  0.8103706999999999  1.0000
  In  In3310    1.0  0.9868421053947367  0.598484848409091  0.1896293  1.0000
  Se  Se4963    1.0  0.9736842103947366  0.6060606061363637  0.32365471999999995  1.0000
  Se  Se4964    1.0  0.9868421053947367  0.598484848409091  0.6763452799999999  1.0000
  Se  Se4965    1.0  0.9736842105263156  0.590909090909091  0.0  1.0000
  In  In3311    1.0  0.9736842106578946  0.6212121211363637  0.1896293  1.0000
  Se  Se4966    1.0  0.9736842106578946  0.6212121211363637  0.6763452799999999  1.0000
  In  In3312    1.0  0.9868421051315788  0.6287878788636365  0.8103706999999999  1.0000
  Se  Se4967    1.0  0.9868421051315788  0.6287878788636365  0.32365471999999995  1.0000
  Se  Se4968    1.0  0.9868421052631577  0.6136363636363638  0.0  1.0000
  In  In3313    1.0  0.9736842103947366  0.6515151515909091  0.8103706999999999  1.0000
  In  In3314    1.0  0.9868421053947367  0.6439393938636364  0.1896293  1.0000
  Se  Se4969    1.0  0.9736842103947366  0.6515151515909091  0.32365471999999995  1.0000
  Se  Se4970    1.0  0.9868421053947367  0.6439393938636364  0.6763452799999999  1.0000
  Se  Se4971    1.0  0.9736842105263156  0.6363636363636365  0.0  1.0000
  In  In3315    1.0  0.9736842106578946  0.6666666665909092  0.1896293  1.0000
  Se  Se4972    1.0  0.9736842106578946  0.6666666665909092  0.6763452799999999  1.0000
  In  In3316    1.0  0.9868421051315788  0.6742424243181819  0.8103706999999999  1.0000
  Se  Se4973    1.0  0.9868421051315788  0.6742424243181819  0.32365471999999995  1.0000
  Se  Se4974    1.0  0.9868421052631577  0.6590909090909092  0.0  1.0000
  In  In3317    1.0  0.9736842103947366  0.6969696970454546  0.8103706999999999  1.0000
  In  In3318    1.0  0.9868421053947367  0.6893939393181818  0.1896293  1.0000
  Se  Se4975    1.0  0.9736842103947366  0.6969696970454546  0.32365471999999995  1.0000
  Se  Se4976    1.0  0.9868421053947367  0.6893939393181818  0.6763452799999999  1.0000
  Se  Se4977    1.0  0.9736842105263156  0.6818181818181819  0.0  1.0000
  In  In3319    1.0  0.9736842106578946  0.7121212120454546  0.1896293  1.0000
  Se  Se4978    1.0  0.9736842106578946  0.7121212120454546  0.6763452799999999  1.0000
  In  In3320    1.0  0.9868421051315788  0.7196969697727273  0.8103706999999999  1.0000
  Se  Se4979    1.0  0.9868421051315788  0.7196969697727273  0.32365471999999995  1.0000
  Se  Se4980    1.0  0.9868421052631577  0.7045454545454547  0.0  1.0000
  In  In3321    1.0  0.9736842103947366  0.7424242425  0.8103706999999999  1.0000
  In  In3322    1.0  0.9868421053947367  0.7348484847727274  0.1896293  1.0000
  Se  Se4981    1.0  0.9736842103947366  0.7424242425  0.32365471999999995  1.0000
  Se  Se4982    1.0  0.9868421053947367  0.7348484847727274  0.6763452799999999  1.0000
  Se  Se4983    1.0  0.9736842105263156  0.7272727272727273  0.0  1.0000
  In  In3323    1.0  0.9736842106578946  0.7575757575000001  0.1896293  1.0000
  Se  Se4984    1.0  0.9736842106578946  0.7575757575000001  0.6763452799999999  1.0000
  In  In3324    1.0  0.9868421051315788  0.7651515152272729  0.8103706999999999  1.0000
  Se  Se4985    1.0  0.9868421051315788  0.7651515152272729  0.32365471999999995  1.0000
  Se  Se4986    1.0  0.9868421052631577  0.7500000000000001  0.0  1.0000
  In  In3325    1.0  0.9736842103947366  0.7878787879545455  0.8103706999999999  1.0000
  In  In3326    1.0  0.9868421053947367  0.7803030302272728  0.1896293  1.0000
  Se  Se4987    1.0  0.9736842103947366  0.7878787879545455  0.32365471999999995  1.0000
  Se  Se4988    1.0  0.9868421053947367  0.7803030302272728  0.6763452799999999  1.0000
  Se  Se4989    1.0  0.9736842105263156  0.7727272727272728  0.0  1.0000
  In  In3327    1.0  0.9736842106578946  0.8030303029545455  0.1896293  1.0000
  Se  Se4990    1.0  0.9736842106578946  0.8030303029545455  0.6763452799999999  1.0000
  In  In3328    1.0  0.9868421051315788  0.8106060606818183  0.8103706999999999  1.0000
  Se  Se4991    1.0  0.9868421051315788  0.8106060606818183  0.32365471999999995  1.0000
  Se  Se4992    1.0  0.9868421052631577  0.7954545454545455  0.0  1.0000
  In  In3329    1.0  0.9736842103947366  0.833333333409091  0.8103706999999999  1.0000
  In  In3330    1.0  0.9868421053947367  0.8257575756818182  0.1896293  1.0000
  Se  Se4993    1.0  0.9736842103947366  0.833333333409091  0.32365471999999995  1.0000
  Se  Se4994    1.0  0.9868421053947367  0.8257575756818182  0.6763452799999999  1.0000
  Se  Se4995    1.0  0.9736842105263156  0.8181818181818182  0.0  1.0000
  In  In3331    1.0  0.9736842106578946  0.848484848409091  0.1896293  1.0000
  Se  Se4996    1.0  0.9736842106578946  0.848484848409091  0.6763452799999999  1.0000
  In  In3332    1.0  0.9868421051315788  0.8560606061363636  0.8103706999999999  1.0000
  Se  Se4997    1.0  0.9868421051315788  0.8560606061363636  0.32365471999999995  1.0000
  Se  Se4998    1.0  0.9868421052631577  0.840909090909091  0.0  1.0000
  In  In3333    1.0  0.9736842103947366  0.8787878788636366  0.8103706999999999  1.0000
  In  In3334    1.0  0.9868421053947367  0.8712121211363637  0.1896293  1.0000
  Se  Se4999    1.0  0.9736842103947366  0.8787878788636366  0.32365471999999995  1.0000
  Se  Se5000    1.0  0.9868421053947367  0.8712121211363637  0.6763452799999999  1.0000
  Se  Se5001    1.0  0.9736842105263156  0.8636363636363638  0.0  1.0000
  In  In3335    1.0  0.9736842106578946  0.8939393938636365  0.1896293  1.0000
  Se  Se5002    1.0  0.9736842106578946  0.8939393938636365  0.6763452799999999  1.0000
  In  In3336    1.0  0.9868421051315788  0.9015151515909092  0.8103706999999999  1.0000
  Se  Se5003    1.0  0.9868421051315788  0.9015151515909092  0.32365471999999995  1.0000
  Se  Se5004    1.0  0.9868421052631577  0.8863636363636366  0.0  1.0000
  In  In3337    1.0  0.9736842103947366  0.9242424243181819  0.8103706999999999  1.0000
  In  In3338    1.0  0.9868421053947367  0.9166666665909091  0.1896293  1.0000
  Se  Se5005    1.0  0.9736842103947366  0.9242424243181819  0.32365471999999995  1.0000
  Se  Se5006    1.0  0.9868421053947367  0.9166666665909091  0.6763452799999999  1.0000
  Se  Se5007    1.0  0.9736842105263156  0.9090909090909092  0.0  1.0000
  In  In3339    1.0  0.9736842106578946  0.9393939393181818  0.1896293  1.0000
  Se  Se5008    1.0  0.9736842106578946  0.9393939393181818  0.6763452799999999  1.0000
  In  In3340    1.0  0.9868421051315788  0.9469696970454545  0.8103706999999999  1.0000
  Se  Se5009    1.0  0.9868421051315788  0.9469696970454545  0.32365471999999995  1.0000
  Se  Se5010    1.0  0.9868421052631577  0.9318181818181819  0.0  1.0000
  In  In3341    1.0  0.9736842103947366  0.9696969697727275  0.8103706999999999  1.0000
  In  In3342    1.0  0.9868421053947367  0.9621212120454546  0.1896293  1.0000
  Se  Se5011    1.0  0.9736842103947366  0.9696969697727275  0.32365471999999995  1.0000
  Se  Se5012    1.0  0.9868421053947367  0.9621212120454546  0.6763452799999999  1.0000
  Se  Se5013    1.0  0.9736842105263156  0.9545454545454547  0.0  1.0000
  In  In3343    1.0  0.9736842106578946  0.9848484847727275  0.1896293  1.0000
  Se  Se5014    1.0  0.9736842106578946  0.9848484847727275  0.6763452799999999  1.0000
  In  In3344    1.0  0.9868421051315788  0.9924242425  0.8103706999999999  1.0000
  Se  Se5015    1.0  0.9868421051315788  0.9924242425  0.32365471999999995  1.0000
  Se  Se5016    1.0  0.9868421052631577  0.9772727272727274  0.0  1.0000
